version 2
run GTrndIfIndex36-8-20100531-16:53:04-19979
attr configname GTrndIfIndex36
attr datetime 20100531-16:53:04
attr experiment GTrndIfIndex36
attr inifile omnetpp.ini
attr iterationvars "$numudpapp=3, $sp=50, $msgfreq=0.02"
attr iterationvars2 "$numudpapp=3, $sp=50, $msgfreq=0.02, $repetition=2"
attr measurement "$numudpapp=3, $sp=50, $msgfreq=0.02"
attr msgfreq 0.02
attr network NetworkMultiRadioIPv4
attr numudpapp 3
attr processid 19979
attr repetition 2
attr replication #2
attr resultdir results
attr runnumber 8
attr seedset 8
attr sp 50

scalar . 	msgfreq 	0.02
scalar . 	numudpapp 	3
scalar . 	sp 	50
scalar NetworkMultiRadioIPv4.mobileHost[0].udpApp[0] 	"Total send" 	928
scalar NetworkMultiRadioIPv4.mobileHost[0].udpApp[0] 	"Total received" 	536
scalar NetworkMultiRadioIPv4.mobileHost[0].udpApp[0] 	"Total deleted" 	607
scalar NetworkMultiRadioIPv4.mobileHost[0].udpApp[0] 	"Mean delay" 	0.084667166738349
scalar NetworkMultiRadioIPv4.mobileHost[0].udpApp[0] 	"Min delay" 	0.001371207106
scalar NetworkMultiRadioIPv4.mobileHost[0].udpApp[0] 	"Max delay" 	0.884352482534
scalar NetworkMultiRadioIPv4.mobileHost[0].udpApp[0] 	"Deviation delay" 	0.097940054915938
scalar NetworkMultiRadioIPv4.mobileHost[0].udpApp[0] 	"TTL28 NumOfBurstsReceived" 	2
scalar NetworkMultiRadioIPv4.mobileHost[0].udpApp[0] 	"TTL28 NumOfPacketsReceived" 	536
scalar NetworkMultiRadioIPv4.mobileHost[0].udpApp[1] 	"Total send" 	927
scalar NetworkMultiRadioIPv4.mobileHost[0].udpApp[1] 	"Total received" 	0
scalar NetworkMultiRadioIPv4.mobileHost[0].udpApp[1] 	"Total deleted" 	0
scalar NetworkMultiRadioIPv4.mobileHost[0].udpApp[1] 	"Mean delay" 	0
scalar NetworkMultiRadioIPv4.mobileHost[0].udpApp[1] 	"Min delay" 	0
scalar NetworkMultiRadioIPv4.mobileHost[0].udpApp[1] 	"Max delay" 	0
scalar NetworkMultiRadioIPv4.mobileHost[0].udpApp[1] 	"Deviation delay" 	nan
scalar NetworkMultiRadioIPv4.mobileHost[0].udpApp[2] 	"Total send" 	927
scalar NetworkMultiRadioIPv4.mobileHost[0].udpApp[2] 	"Total received" 	0
scalar NetworkMultiRadioIPv4.mobileHost[0].udpApp[2] 	"Total deleted" 	0
scalar NetworkMultiRadioIPv4.mobileHost[0].udpApp[2] 	"Mean delay" 	0
scalar NetworkMultiRadioIPv4.mobileHost[0].udpApp[2] 	"Min delay" 	0
scalar NetworkMultiRadioIPv4.mobileHost[0].udpApp[2] 	"Max delay" 	0
scalar NetworkMultiRadioIPv4.mobileHost[0].udpApp[2] 	"Deviation delay" 	nan
scalar NetworkMultiRadioIPv4.mobileHost[0].pingApp 	"Pings sent" 	0
scalar NetworkMultiRadioIPv4.mobileHost[0].wlan[0].mgmt 	"packets received by queue" 	2779
scalar NetworkMultiRadioIPv4.mobileHost[0].wlan[0].mgmt 	"packets dropped by queue" 	0
scalar NetworkMultiRadioIPv4.mobileHost[0].wlan[0].mac 	"Mean Frame Length" 	222
scalar NetworkMultiRadioIPv4.mobileHost[0].wlan[0].mac 	"Frame Length stddev" 	0
scalar NetworkMultiRadioIPv4.mobileHost[0].wlan[0].mac 	"Sent Throughput" 	0.2141854965556
scalar NetworkMultiRadioIPv4.mobileHost[0].wlan[0].mac 	"CW medio" 	124.94249351874
scalar NetworkMultiRadioIPv4.mobileHost[0].wlan[0].mac 	"CW max" 	1023
scalar NetworkMultiRadioIPv4.mobileHost[0].wlan[0].mac 	"CW dev" 	202.31806028528
scalar NetworkMultiRadioIPv4.mobileHost[0].wlan[0].mac 	"Mean service time" 	0.046242061081537
scalar NetworkMultiRadioIPv4.mobileHost[0].wlan[0].mac 	numSent 	2412
scalar NetworkMultiRadioIPv4.mobileHost[0].wlan[0].mac 	numSentWithoutRetry 	881
scalar NetworkMultiRadioIPv4.mobileHost[0].wlan[0].mac 	numReceived 	182
scalar NetworkMultiRadioIPv4.mobileHost[0].wlan[0].mac 	numSelfReceived 	2774
scalar NetworkMultiRadioIPv4.mobileHost[0].wlan[0].mac 	numSentBroadcast 	-1
scalar NetworkMultiRadioIPv4.mobileHost[0].wlan[0].mac 	numReceivedBroadcast 	0
scalar NetworkMultiRadioIPv4.mobileHost[0].wlan[0].mac 	numReceivedOther 	2149
scalar NetworkMultiRadioIPv4.mobileHost[0].wlan[0].mac 	numCollision 	3671
scalar NetworkMultiRadioIPv4.mobileHost[0].wlan[0].mac 	numGivenUp 	360
scalar NetworkMultiRadioIPv4.mobileHost[0].wlan[0].mac 	numAckSend 	182
scalar NetworkMultiRadioIPv4.mobileHost[0].wlan[0].mac 	numRetry 	6075
scalar NetworkMultiRadioIPv4.mobileHost[0].wlan[1].mgmt 	"packets received by queue" 	0
scalar NetworkMultiRadioIPv4.mobileHost[0].wlan[1].mgmt 	"packets dropped by queue" 	0
scalar NetworkMultiRadioIPv4.mobileHost[0].wlan[1].mac 	"Mean Frame Length" 	0
scalar NetworkMultiRadioIPv4.mobileHost[0].wlan[1].mac 	"Frame Length stddev" 	nan
scalar NetworkMultiRadioIPv4.mobileHost[0].wlan[1].mac 	"Sent Throughput" 	0
scalar NetworkMultiRadioIPv4.mobileHost[0].wlan[1].mac 	"CW medio" 	0
scalar NetworkMultiRadioIPv4.mobileHost[0].wlan[1].mac 	"CW max" 	0
scalar NetworkMultiRadioIPv4.mobileHost[0].wlan[1].mac 	"CW dev" 	nan
scalar NetworkMultiRadioIPv4.mobileHost[0].wlan[1].mac 	"Mean service time" 	0
scalar NetworkMultiRadioIPv4.mobileHost[0].wlan[1].mac 	numSent 	0
scalar NetworkMultiRadioIPv4.mobileHost[0].wlan[1].mac 	numSentWithoutRetry 	0
scalar NetworkMultiRadioIPv4.mobileHost[0].wlan[1].mac 	numReceived 	27
scalar NetworkMultiRadioIPv4.mobileHost[0].wlan[1].mac 	numSelfReceived 	0
scalar NetworkMultiRadioIPv4.mobileHost[0].wlan[1].mac 	numSentBroadcast 	-1
scalar NetworkMultiRadioIPv4.mobileHost[0].wlan[1].mac 	numReceivedBroadcast 	0
scalar NetworkMultiRadioIPv4.mobileHost[0].wlan[1].mac 	numReceivedOther 	1450
scalar NetworkMultiRadioIPv4.mobileHost[0].wlan[1].mac 	numCollision 	270
scalar NetworkMultiRadioIPv4.mobileHost[0].wlan[1].mac 	numGivenUp 	0
scalar NetworkMultiRadioIPv4.mobileHost[0].wlan[1].mac 	numAckSend 	27
scalar NetworkMultiRadioIPv4.mobileHost[0].wlan[1].mac 	numRetry 	0
scalar NetworkMultiRadioIPv4.mobileHost[0].wlan[2].mgmt 	"packets received by queue" 	0
scalar NetworkMultiRadioIPv4.mobileHost[0].wlan[2].mgmt 	"packets dropped by queue" 	0
scalar NetworkMultiRadioIPv4.mobileHost[0].wlan[2].mac 	"Mean Frame Length" 	0
scalar NetworkMultiRadioIPv4.mobileHost[0].wlan[2].mac 	"Frame Length stddev" 	nan
scalar NetworkMultiRadioIPv4.mobileHost[0].wlan[2].mac 	"Sent Throughput" 	0
scalar NetworkMultiRadioIPv4.mobileHost[0].wlan[2].mac 	"CW medio" 	0
scalar NetworkMultiRadioIPv4.mobileHost[0].wlan[2].mac 	"CW max" 	0
scalar NetworkMultiRadioIPv4.mobileHost[0].wlan[2].mac 	"CW dev" 	nan
scalar NetworkMultiRadioIPv4.mobileHost[0].wlan[2].mac 	"Mean service time" 	0
scalar NetworkMultiRadioIPv4.mobileHost[0].wlan[2].mac 	numSent 	0
scalar NetworkMultiRadioIPv4.mobileHost[0].wlan[2].mac 	numSentWithoutRetry 	0
scalar NetworkMultiRadioIPv4.mobileHost[0].wlan[2].mac 	numReceived 	934
scalar NetworkMultiRadioIPv4.mobileHost[0].wlan[2].mac 	numSelfReceived 	0
scalar NetworkMultiRadioIPv4.mobileHost[0].wlan[2].mac 	numSentBroadcast 	-1
scalar NetworkMultiRadioIPv4.mobileHost[0].wlan[2].mac 	numReceivedBroadcast 	0
scalar NetworkMultiRadioIPv4.mobileHost[0].wlan[2].mac 	numReceivedOther 	4006
scalar NetworkMultiRadioIPv4.mobileHost[0].wlan[2].mac 	numCollision 	5803
scalar NetworkMultiRadioIPv4.mobileHost[0].wlan[2].mac 	numGivenUp 	0
scalar NetworkMultiRadioIPv4.mobileHost[0].wlan[2].mac 	numAckSend 	934
scalar NetworkMultiRadioIPv4.mobileHost[0].wlan[2].mac 	numRetry 	0
scalar NetworkMultiRadioIPv4.mobileHost[0].manetRouting.manetmanager.manetroutingprotocol 	"Position X" 	0
scalar NetworkMultiRadioIPv4.mobileHost[0].manetRouting.manetmanager.manetroutingprotocol 	"Position Y" 	0
scalar NetworkMultiRadioIPv4.mobileHost[0].manetRouting.manetmanager.manetroutingprotocol 	lonelyCount 	0
scalar NetworkMultiRadioIPv4.mobileHost[0].manetRouting.manetmanager.manetroutingprotocol 	noNextHopCount 	0
scalar NetworkMultiRadioIPv4.mobileHost[0].manetRouting.manetmanager.manetroutingprotocol 	"Forwarding rate" 	0
scalar NetworkMultiRadioIPv4.mobileHost[0].manetRouting.manetmanager.manetroutingprotocol 	Load 	0.36633490891686
scalar NetworkMultiRadioIPv4.mobileHost[0].manetRouting.manetmanager.manetroutingprotocol 	"Interarrival time" 	0.0068369660632548
scalar NetworkMultiRadioIPv4.mobileHost[1].udpApp[0] 	"Total send" 	0
scalar NetworkMultiRadioIPv4.mobileHost[1].udpApp[0] 	"Total received" 	0
scalar NetworkMultiRadioIPv4.mobileHost[1].udpApp[0] 	"Total deleted" 	0
scalar NetworkMultiRadioIPv4.mobileHost[1].udpApp[0] 	"Mean delay" 	0
scalar NetworkMultiRadioIPv4.mobileHost[1].udpApp[0] 	"Min delay" 	0
scalar NetworkMultiRadioIPv4.mobileHost[1].udpApp[0] 	"Max delay" 	0
scalar NetworkMultiRadioIPv4.mobileHost[1].udpApp[0] 	"Deviation delay" 	nan
scalar NetworkMultiRadioIPv4.mobileHost[1].udpApp[1] 	"Total send" 	928
scalar NetworkMultiRadioIPv4.mobileHost[1].udpApp[1] 	"Total received" 	0
scalar NetworkMultiRadioIPv4.mobileHost[1].udpApp[1] 	"Total deleted" 	0
scalar NetworkMultiRadioIPv4.mobileHost[1].udpApp[1] 	"Mean delay" 	0
scalar NetworkMultiRadioIPv4.mobileHost[1].udpApp[1] 	"Min delay" 	0
scalar NetworkMultiRadioIPv4.mobileHost[1].udpApp[1] 	"Max delay" 	0
scalar NetworkMultiRadioIPv4.mobileHost[1].udpApp[1] 	"Deviation delay" 	nan
scalar NetworkMultiRadioIPv4.mobileHost[1].udpApp[2] 	"Total send" 	928
scalar NetworkMultiRadioIPv4.mobileHost[1].udpApp[2] 	"Total received" 	0
scalar NetworkMultiRadioIPv4.mobileHost[1].udpApp[2] 	"Total deleted" 	0
scalar NetworkMultiRadioIPv4.mobileHost[1].udpApp[2] 	"Mean delay" 	0
scalar NetworkMultiRadioIPv4.mobileHost[1].udpApp[2] 	"Min delay" 	0
scalar NetworkMultiRadioIPv4.mobileHost[1].udpApp[2] 	"Max delay" 	0
scalar NetworkMultiRadioIPv4.mobileHost[1].udpApp[2] 	"Deviation delay" 	nan
scalar NetworkMultiRadioIPv4.mobileHost[1].pingApp 	"Pings sent" 	0
scalar NetworkMultiRadioIPv4.mobileHost[1].wlan[0].mgmt 	"packets received by queue" 	5
scalar NetworkMultiRadioIPv4.mobileHost[1].wlan[0].mgmt 	"packets dropped by queue" 	0
scalar NetworkMultiRadioIPv4.mobileHost[1].wlan[0].mac 	"Mean Frame Length" 	222
scalar NetworkMultiRadioIPv4.mobileHost[1].wlan[0].mac 	"Frame Length stddev" 	0
scalar NetworkMultiRadioIPv4.mobileHost[1].wlan[0].mac 	"Sent Throughput" 	0.00044399978556302
scalar NetworkMultiRadioIPv4.mobileHost[1].wlan[0].mac 	"CW medio" 	94
scalar NetworkMultiRadioIPv4.mobileHost[1].wlan[0].mac 	"CW max" 	486
scalar NetworkMultiRadioIPv4.mobileHost[1].wlan[0].mac 	"CW dev" 	136.61991070119
scalar NetworkMultiRadioIPv4.mobileHost[1].wlan[0].mac 	"Mean service time" 	0.0088392375772
scalar NetworkMultiRadioIPv4.mobileHost[1].wlan[0].mac 	numSent 	5
scalar NetworkMultiRadioIPv4.mobileHost[1].wlan[0].mac 	numSentWithoutRetry 	3
scalar NetworkMultiRadioIPv4.mobileHost[1].wlan[0].mac 	numReceived 	1
scalar NetworkMultiRadioIPv4.mobileHost[1].wlan[0].mac 	numSelfReceived 	5
scalar NetworkMultiRadioIPv4.mobileHost[1].wlan[0].mac 	numSentBroadcast 	-1
scalar NetworkMultiRadioIPv4.mobileHost[1].wlan[0].mac 	numReceivedBroadcast 	0
scalar NetworkMultiRadioIPv4.mobileHost[1].wlan[0].mac 	numReceivedOther 	9746
scalar NetworkMultiRadioIPv4.mobileHost[1].wlan[0].mac 	numCollision 	9589
scalar NetworkMultiRadioIPv4.mobileHost[1].wlan[0].mac 	numGivenUp 	0
scalar NetworkMultiRadioIPv4.mobileHost[1].wlan[0].mac 	numAckSend 	1
scalar NetworkMultiRadioIPv4.mobileHost[1].wlan[0].mac 	numRetry 	7
scalar NetworkMultiRadioIPv4.mobileHost[1].wlan[1].mgmt 	"packets received by queue" 	0
scalar NetworkMultiRadioIPv4.mobileHost[1].wlan[1].mgmt 	"packets dropped by queue" 	0
scalar NetworkMultiRadioIPv4.mobileHost[1].wlan[1].mac 	"Mean Frame Length" 	0
scalar NetworkMultiRadioIPv4.mobileHost[1].wlan[1].mac 	"Frame Length stddev" 	nan
scalar NetworkMultiRadioIPv4.mobileHost[1].wlan[1].mac 	"Sent Throughput" 	0
scalar NetworkMultiRadioIPv4.mobileHost[1].wlan[1].mac 	"CW medio" 	0
scalar NetworkMultiRadioIPv4.mobileHost[1].wlan[1].mac 	"CW max" 	0
scalar NetworkMultiRadioIPv4.mobileHost[1].wlan[1].mac 	"CW dev" 	nan
scalar NetworkMultiRadioIPv4.mobileHost[1].wlan[1].mac 	"Mean service time" 	0
scalar NetworkMultiRadioIPv4.mobileHost[1].wlan[1].mac 	numSent 	0
scalar NetworkMultiRadioIPv4.mobileHost[1].wlan[1].mac 	numSentWithoutRetry 	0
scalar NetworkMultiRadioIPv4.mobileHost[1].wlan[1].mac 	numReceived 	752
scalar NetworkMultiRadioIPv4.mobileHost[1].wlan[1].mac 	numSelfReceived 	0
scalar NetworkMultiRadioIPv4.mobileHost[1].wlan[1].mac 	numSentBroadcast 	-1
scalar NetworkMultiRadioIPv4.mobileHost[1].wlan[1].mac 	numReceivedBroadcast 	0
scalar NetworkMultiRadioIPv4.mobileHost[1].wlan[1].mac 	numReceivedOther 	3453
scalar NetworkMultiRadioIPv4.mobileHost[1].wlan[1].mac 	numCollision 	4686
scalar NetworkMultiRadioIPv4.mobileHost[1].wlan[1].mac 	numGivenUp 	0
scalar NetworkMultiRadioIPv4.mobileHost[1].wlan[1].mac 	numAckSend 	752
scalar NetworkMultiRadioIPv4.mobileHost[1].wlan[1].mac 	numRetry 	0
scalar NetworkMultiRadioIPv4.mobileHost[1].wlan[2].mgmt 	"packets received by queue" 	2604
scalar NetworkMultiRadioIPv4.mobileHost[1].wlan[2].mgmt 	"packets dropped by queue" 	0
scalar NetworkMultiRadioIPv4.mobileHost[1].wlan[2].mac 	"Mean Frame Length" 	222
scalar NetworkMultiRadioIPv4.mobileHost[1].wlan[2].mac 	"Frame Length stddev" 	0
scalar NetworkMultiRadioIPv4.mobileHost[1].wlan[2].mac 	"Sent Throughput" 	0.21187669767067
scalar NetworkMultiRadioIPv4.mobileHost[1].wlan[2].mac 	"CW medio" 	108.58173584906
scalar NetworkMultiRadioIPv4.mobileHost[1].wlan[2].mac 	"CW max" 	1022
scalar NetworkMultiRadioIPv4.mobileHost[1].wlan[2].mac 	"CW dev" 	182.40394781817
scalar NetworkMultiRadioIPv4.mobileHost[1].wlan[2].mac 	"Mean service time" 	0.015615205195773
scalar NetworkMultiRadioIPv4.mobileHost[1].wlan[2].mac 	numSent 	2386
scalar NetworkMultiRadioIPv4.mobileHost[1].wlan[2].mac 	numSentWithoutRetry 	949
scalar NetworkMultiRadioIPv4.mobileHost[1].wlan[2].mac 	numReceived 	0
scalar NetworkMultiRadioIPv4.mobileHost[1].wlan[2].mac 	numSelfReceived 	2598
scalar NetworkMultiRadioIPv4.mobileHost[1].wlan[2].mac 	numSentBroadcast 	-1
scalar NetworkMultiRadioIPv4.mobileHost[1].wlan[2].mac 	numReceivedBroadcast 	0
scalar NetworkMultiRadioIPv4.mobileHost[1].wlan[2].mac 	numReceivedOther 	5399
scalar NetworkMultiRadioIPv4.mobileHost[1].wlan[2].mac 	numCollision 	4561
scalar NetworkMultiRadioIPv4.mobileHost[1].wlan[2].mac 	numGivenUp 	210
scalar NetworkMultiRadioIPv4.mobileHost[1].wlan[2].mac 	numAckSend 	0
scalar NetworkMultiRadioIPv4.mobileHost[1].wlan[2].mac 	numRetry 	4688
scalar NetworkMultiRadioIPv4.mobileHost[1].manetRouting.manetmanager.manetroutingprotocol 	"Position X" 	150
scalar NetworkMultiRadioIPv4.mobileHost[1].manetRouting.manetmanager.manetroutingprotocol 	"Position Y" 	0
scalar NetworkMultiRadioIPv4.mobileHost[1].manetRouting.manetmanager.manetroutingprotocol 	lonelyCount 	0
scalar NetworkMultiRadioIPv4.mobileHost[1].manetRouting.manetmanager.manetroutingprotocol 	noNextHopCount 	0
scalar NetworkMultiRadioIPv4.mobileHost[1].manetRouting.manetmanager.manetroutingprotocol 	"Forwarding rate" 	0.56666666666667
scalar NetworkMultiRadioIPv4.mobileHost[1].manetRouting.manetmanager.manetroutingprotocol 	Load 	0
scalar NetworkMultiRadioIPv4.mobileHost[1].manetRouting.manetmanager.manetroutingprotocol 	"Interarrival time" 	0.0072813820207754
scalar NetworkMultiRadioIPv4.mobileHost[2].udpApp[0] 	"Total send" 	0
scalar NetworkMultiRadioIPv4.mobileHost[2].udpApp[0] 	"Total received" 	262
scalar NetworkMultiRadioIPv4.mobileHost[2].udpApp[0] 	"Total deleted" 	499
scalar NetworkMultiRadioIPv4.mobileHost[2].udpApp[0] 	"Mean delay" 	0.11740376524855
scalar NetworkMultiRadioIPv4.mobileHost[2].udpApp[0] 	"Min delay" 	0.00161102372
scalar NetworkMultiRadioIPv4.mobileHost[2].udpApp[0] 	"Max delay" 	0.482533890285
scalar NetworkMultiRadioIPv4.mobileHost[2].udpApp[0] 	"Deviation delay" 	0.08511383038356
scalar NetworkMultiRadioIPv4.mobileHost[2].udpApp[0] 	"TTL28 NumOfBurstsReceived" 	1
scalar NetworkMultiRadioIPv4.mobileHost[2].udpApp[0] 	"TTL28 NumOfPacketsReceived" 	262
scalar NetworkMultiRadioIPv4.mobileHost[2].udpApp[1] 	"Total send" 	0
scalar NetworkMultiRadioIPv4.mobileHost[2].udpApp[1] 	"Total received" 	0
scalar NetworkMultiRadioIPv4.mobileHost[2].udpApp[1] 	"Total deleted" 	0
scalar NetworkMultiRadioIPv4.mobileHost[2].udpApp[1] 	"Mean delay" 	0
scalar NetworkMultiRadioIPv4.mobileHost[2].udpApp[1] 	"Min delay" 	0
scalar NetworkMultiRadioIPv4.mobileHost[2].udpApp[1] 	"Max delay" 	0
scalar NetworkMultiRadioIPv4.mobileHost[2].udpApp[1] 	"Deviation delay" 	nan
scalar NetworkMultiRadioIPv4.mobileHost[2].udpApp[2] 	"Total send" 	0
scalar NetworkMultiRadioIPv4.mobileHost[2].udpApp[2] 	"Total received" 	0
scalar NetworkMultiRadioIPv4.mobileHost[2].udpApp[2] 	"Total deleted" 	0
scalar NetworkMultiRadioIPv4.mobileHost[2].udpApp[2] 	"Mean delay" 	0
scalar NetworkMultiRadioIPv4.mobileHost[2].udpApp[2] 	"Min delay" 	0
scalar NetworkMultiRadioIPv4.mobileHost[2].udpApp[2] 	"Max delay" 	0
scalar NetworkMultiRadioIPv4.mobileHost[2].udpApp[2] 	"Deviation delay" 	nan
scalar NetworkMultiRadioIPv4.mobileHost[2].pingApp 	"Pings sent" 	0
scalar NetworkMultiRadioIPv4.mobileHost[2].wlan[0].mgmt 	"packets received by queue" 	1
scalar NetworkMultiRadioIPv4.mobileHost[2].wlan[0].mgmt 	"packets dropped by queue" 	0
scalar NetworkMultiRadioIPv4.mobileHost[2].wlan[0].mac 	"Mean Frame Length" 	222
scalar NetworkMultiRadioIPv4.mobileHost[2].wlan[0].mac 	"Frame Length stddev" 	nan
scalar NetworkMultiRadioIPv4.mobileHost[2].wlan[0].mac 	"Sent Throughput" 	8.8799957112604e-05
scalar NetworkMultiRadioIPv4.mobileHost[2].wlan[0].mac 	"CW medio" 	25
scalar NetworkMultiRadioIPv4.mobileHost[2].wlan[0].mac 	"CW max" 	25
scalar NetworkMultiRadioIPv4.mobileHost[2].wlan[0].mac 	"CW dev" 	nan
scalar NetworkMultiRadioIPv4.mobileHost[2].wlan[0].mac 	"Mean service time" 	0.000524
scalar NetworkMultiRadioIPv4.mobileHost[2].wlan[0].mac 	numSent 	1
scalar NetworkMultiRadioIPv4.mobileHost[2].wlan[0].mac 	numSentWithoutRetry 	1
scalar NetworkMultiRadioIPv4.mobileHost[2].wlan[0].mac 	numReceived 	382
scalar NetworkMultiRadioIPv4.mobileHost[2].wlan[0].mac 	numSelfReceived 	1
scalar NetworkMultiRadioIPv4.mobileHost[2].wlan[0].mac 	numSentBroadcast 	-1
scalar NetworkMultiRadioIPv4.mobileHost[2].wlan[0].mac 	numReceivedBroadcast 	0
scalar NetworkMultiRadioIPv4.mobileHost[2].wlan[0].mac 	numReceivedOther 	7918
scalar NetworkMultiRadioIPv4.mobileHost[2].wlan[0].mac 	numCollision 	6843
scalar NetworkMultiRadioIPv4.mobileHost[2].wlan[0].mac 	numGivenUp 	0
scalar NetworkMultiRadioIPv4.mobileHost[2].wlan[0].mac 	numAckSend 	382
scalar NetworkMultiRadioIPv4.mobileHost[2].wlan[0].mac 	numRetry 	0
scalar NetworkMultiRadioIPv4.mobileHost[2].wlan[1].mgmt 	"packets received by queue" 	785
scalar NetworkMultiRadioIPv4.mobileHost[2].wlan[1].mgmt 	"packets dropped by queue" 	0
scalar NetworkMultiRadioIPv4.mobileHost[2].wlan[1].mac 	"Mean Frame Length" 	222
scalar NetworkMultiRadioIPv4.mobileHost[2].wlan[1].mac 	"Frame Length stddev" 	0
scalar NetworkMultiRadioIPv4.mobileHost[2].wlan[1].mac 	"Sent Throughput" 	0.066777567748679
scalar NetworkMultiRadioIPv4.mobileHost[2].wlan[1].mac 	"CW medio" 	101.81464679196
scalar NetworkMultiRadioIPv4.mobileHost[2].wlan[1].mac 	"CW max" 	1015
scalar NetworkMultiRadioIPv4.mobileHost[2].wlan[1].mac 	"CW dev" 	168.81100758951
scalar NetworkMultiRadioIPv4.mobileHost[2].wlan[1].mac 	"Mean service time" 	0.0046567863757301
scalar NetworkMultiRadioIPv4.mobileHost[2].wlan[1].mac 	numSent 	752
scalar NetworkMultiRadioIPv4.mobileHost[2].wlan[1].mac 	numSentWithoutRetry 	320
scalar NetworkMultiRadioIPv4.mobileHost[2].wlan[1].mac 	numReceived 	344
scalar NetworkMultiRadioIPv4.mobileHost[2].wlan[1].mac 	numSelfReceived 	785
scalar NetworkMultiRadioIPv4.mobileHost[2].wlan[1].mac 	numSentBroadcast 	-1
scalar NetworkMultiRadioIPv4.mobileHost[2].wlan[1].mac 	numReceivedBroadcast 	0
scalar NetworkMultiRadioIPv4.mobileHost[2].wlan[1].mac 	numReceivedOther 	6646
scalar NetworkMultiRadioIPv4.mobileHost[2].wlan[1].mac 	numCollision 	4812
scalar NetworkMultiRadioIPv4.mobileHost[2].wlan[1].mac 	numGivenUp 	33
scalar NetworkMultiRadioIPv4.mobileHost[2].wlan[1].mac 	numAckSend 	344
scalar NetworkMultiRadioIPv4.mobileHost[2].wlan[1].mac 	numRetry 	1183
scalar NetworkMultiRadioIPv4.mobileHost[2].wlan[2].mgmt 	"packets received by queue" 	0
scalar NetworkMultiRadioIPv4.mobileHost[2].wlan[2].mgmt 	"packets dropped by queue" 	0
scalar NetworkMultiRadioIPv4.mobileHost[2].wlan[2].mac 	"Mean Frame Length" 	0
scalar NetworkMultiRadioIPv4.mobileHost[2].wlan[2].mac 	"Frame Length stddev" 	nan
scalar NetworkMultiRadioIPv4.mobileHost[2].wlan[2].mac 	"Sent Throughput" 	0
scalar NetworkMultiRadioIPv4.mobileHost[2].wlan[2].mac 	"CW medio" 	0
scalar NetworkMultiRadioIPv4.mobileHost[2].wlan[2].mac 	"CW max" 	0
scalar NetworkMultiRadioIPv4.mobileHost[2].wlan[2].mac 	"CW dev" 	nan
scalar NetworkMultiRadioIPv4.mobileHost[2].wlan[2].mac 	"Mean service time" 	0
scalar NetworkMultiRadioIPv4.mobileHost[2].wlan[2].mac 	numSent 	0
scalar NetworkMultiRadioIPv4.mobileHost[2].wlan[2].mac 	numSentWithoutRetry 	0
scalar NetworkMultiRadioIPv4.mobileHost[2].wlan[2].mac 	numReceived 	821
scalar NetworkMultiRadioIPv4.mobileHost[2].wlan[2].mac 	numSelfReceived 	0
scalar NetworkMultiRadioIPv4.mobileHost[2].wlan[2].mac 	numSentBroadcast 	-1
scalar NetworkMultiRadioIPv4.mobileHost[2].wlan[2].mac 	numReceivedBroadcast 	0
scalar NetworkMultiRadioIPv4.mobileHost[2].wlan[2].mac 	numReceivedOther 	14172
scalar NetworkMultiRadioIPv4.mobileHost[2].wlan[2].mac 	numCollision 	13210
scalar NetworkMultiRadioIPv4.mobileHost[2].wlan[2].mac 	numGivenUp 	0
scalar NetworkMultiRadioIPv4.mobileHost[2].wlan[2].mac 	numAckSend 	821
scalar NetworkMultiRadioIPv4.mobileHost[2].wlan[2].mac 	numRetry 	0
scalar NetworkMultiRadioIPv4.mobileHost[2].manetRouting.manetmanager.manetroutingprotocol 	"Position X" 	300
scalar NetworkMultiRadioIPv4.mobileHost[2].manetRouting.manetmanager.manetroutingprotocol 	"Position Y" 	0
scalar NetworkMultiRadioIPv4.mobileHost[2].manetRouting.manetmanager.manetroutingprotocol 	lonelyCount 	0
scalar NetworkMultiRadioIPv4.mobileHost[2].manetRouting.manetmanager.manetroutingprotocol 	noNextHopCount 	0
scalar NetworkMultiRadioIPv4.mobileHost[2].manetRouting.manetmanager.manetroutingprotocol 	"Forwarding rate" 	1
scalar NetworkMultiRadioIPv4.mobileHost[2].manetRouting.manetmanager.manetroutingprotocol 	Load 	0.078811454204039
scalar NetworkMultiRadioIPv4.mobileHost[2].manetRouting.manetmanager.manetroutingprotocol 	"Interarrival time" 	0.02416718358608
scalar NetworkMultiRadioIPv4.mobileHost[3].udpApp[0] 	"Total send" 	928
scalar NetworkMultiRadioIPv4.mobileHost[3].udpApp[0] 	"Total received" 	1198
scalar NetworkMultiRadioIPv4.mobileHost[3].udpApp[0] 	"Total deleted" 	759
scalar NetworkMultiRadioIPv4.mobileHost[3].udpApp[0] 	"Mean delay" 	0.11869574390386
scalar NetworkMultiRadioIPv4.mobileHost[3].udpApp[0] 	"Min delay" 	0.000181
scalar NetworkMultiRadioIPv4.mobileHost[3].udpApp[0] 	"Max delay" 	1.031714871224
scalar NetworkMultiRadioIPv4.mobileHost[3].udpApp[0] 	"Deviation delay" 	0.22627906561485
scalar NetworkMultiRadioIPv4.mobileHost[3].udpApp[0] 	"TTL27 NumOfBurstsReceived" 	1
scalar NetworkMultiRadioIPv4.mobileHost[3].udpApp[0] 	"TTL27 NumOfPacketsReceived" 	211
scalar NetworkMultiRadioIPv4.mobileHost[3].udpApp[0] 	"TTL28 NumOfBurstsReceived" 	1
scalar NetworkMultiRadioIPv4.mobileHost[3].udpApp[0] 	"TTL28 NumOfPacketsReceived" 	127
scalar NetworkMultiRadioIPv4.mobileHost[3].udpApp[0] 	"TTL30 NumOfBurstsReceived" 	1
scalar NetworkMultiRadioIPv4.mobileHost[3].udpApp[0] 	"TTL30 NumOfPacketsReceived" 	860
scalar NetworkMultiRadioIPv4.mobileHost[3].udpApp[1] 	"Total send" 	0
scalar NetworkMultiRadioIPv4.mobileHost[3].udpApp[1] 	"Total received" 	0
scalar NetworkMultiRadioIPv4.mobileHost[3].udpApp[1] 	"Total deleted" 	0
scalar NetworkMultiRadioIPv4.mobileHost[3].udpApp[1] 	"Mean delay" 	0
scalar NetworkMultiRadioIPv4.mobileHost[3].udpApp[1] 	"Min delay" 	0
scalar NetworkMultiRadioIPv4.mobileHost[3].udpApp[1] 	"Max delay" 	0
scalar NetworkMultiRadioIPv4.mobileHost[3].udpApp[1] 	"Deviation delay" 	nan
scalar NetworkMultiRadioIPv4.mobileHost[3].udpApp[2] 	"Total send" 	927
scalar NetworkMultiRadioIPv4.mobileHost[3].udpApp[2] 	"Total received" 	0
scalar NetworkMultiRadioIPv4.mobileHost[3].udpApp[2] 	"Total deleted" 	0
scalar NetworkMultiRadioIPv4.mobileHost[3].udpApp[2] 	"Mean delay" 	0
scalar NetworkMultiRadioIPv4.mobileHost[3].udpApp[2] 	"Min delay" 	0
scalar NetworkMultiRadioIPv4.mobileHost[3].udpApp[2] 	"Max delay" 	0
scalar NetworkMultiRadioIPv4.mobileHost[3].udpApp[2] 	"Deviation delay" 	nan
scalar NetworkMultiRadioIPv4.mobileHost[3].pingApp 	"Pings sent" 	0
scalar NetworkMultiRadioIPv4.mobileHost[3].wlan[0].mgmt 	"packets received by queue" 	1192
scalar NetworkMultiRadioIPv4.mobileHost[3].wlan[0].mgmt 	"packets dropped by queue" 	0
scalar NetworkMultiRadioIPv4.mobileHost[3].wlan[0].mac 	"Mean Frame Length" 	222
scalar NetworkMultiRadioIPv4.mobileHost[3].wlan[0].mac 	"Frame Length stddev" 	0
scalar NetworkMultiRadioIPv4.mobileHost[3].wlan[0].mac 	"Sent Throughput" 	0.098567952394991
scalar NetworkMultiRadioIPv4.mobileHost[3].wlan[0].mac 	"CW medio" 	101.88785689714
scalar NetworkMultiRadioIPv4.mobileHost[3].wlan[0].mac 	"CW max" 	1023
scalar NetworkMultiRadioIPv4.mobileHost[3].wlan[0].mac 	"CW dev" 	177.81824067739
scalar NetworkMultiRadioIPv4.mobileHost[3].wlan[0].mac 	"Mean service time" 	0.0099117549752928
scalar NetworkMultiRadioIPv4.mobileHost[3].wlan[0].mac 	numSent 	1110
scalar NetworkMultiRadioIPv4.mobileHost[3].wlan[0].mac 	numSentWithoutRetry 	435
scalar NetworkMultiRadioIPv4.mobileHost[3].wlan[0].mac 	numReceived 	1772
scalar NetworkMultiRadioIPv4.mobileHost[3].wlan[0].mac 	numSelfReceived 	1192
scalar NetworkMultiRadioIPv4.mobileHost[3].wlan[0].mac 	numSentBroadcast 	-1
scalar NetworkMultiRadioIPv4.mobileHost[3].wlan[0].mac 	numReceivedBroadcast 	0
scalar NetworkMultiRadioIPv4.mobileHost[3].wlan[0].mac 	numReceivedOther 	5712
scalar NetworkMultiRadioIPv4.mobileHost[3].wlan[0].mac 	numCollision 	8122
scalar NetworkMultiRadioIPv4.mobileHost[3].wlan[0].mac 	numGivenUp 	82
scalar NetworkMultiRadioIPv4.mobileHost[3].wlan[0].mac 	numAckSend 	1772
scalar NetworkMultiRadioIPv4.mobileHost[3].wlan[0].mac 	numRetry 	2050
scalar NetworkMultiRadioIPv4.mobileHost[3].wlan[1].mgmt 	"packets received by queue" 	1
scalar NetworkMultiRadioIPv4.mobileHost[3].wlan[1].mgmt 	"packets dropped by queue" 	0
scalar NetworkMultiRadioIPv4.mobileHost[3].wlan[1].mac 	"Mean Frame Length" 	222
scalar NetworkMultiRadioIPv4.mobileHost[3].wlan[1].mac 	"Frame Length stddev" 	nan
scalar NetworkMultiRadioIPv4.mobileHost[3].wlan[1].mac 	"Sent Throughput" 	8.8799957112604e-05
scalar NetworkMultiRadioIPv4.mobileHost[3].wlan[1].mac 	"CW medio" 	5
scalar NetworkMultiRadioIPv4.mobileHost[3].wlan[1].mac 	"CW max" 	5
scalar NetworkMultiRadioIPv4.mobileHost[3].wlan[1].mac 	"CW dev" 	nan
scalar NetworkMultiRadioIPv4.mobileHost[3].wlan[1].mac 	"Mean service time" 	0.000344
scalar NetworkMultiRadioIPv4.mobileHost[3].wlan[1].mac 	numSent 	1
scalar NetworkMultiRadioIPv4.mobileHost[3].wlan[1].mac 	numSentWithoutRetry 	1
scalar NetworkMultiRadioIPv4.mobileHost[3].wlan[1].mac 	numReceived 	871
scalar NetworkMultiRadioIPv4.mobileHost[3].wlan[1].mac 	numSelfReceived 	1
scalar NetworkMultiRadioIPv4.mobileHost[3].wlan[1].mac 	numSentBroadcast 	-1
scalar NetworkMultiRadioIPv4.mobileHost[3].wlan[1].mac 	numReceivedBroadcast 	0
scalar NetworkMultiRadioIPv4.mobileHost[3].wlan[1].mac 	numReceivedOther 	6821
scalar NetworkMultiRadioIPv4.mobileHost[3].wlan[1].mac 	numCollision 	7933
scalar NetworkMultiRadioIPv4.mobileHost[3].wlan[1].mac 	numGivenUp 	0
scalar NetworkMultiRadioIPv4.mobileHost[3].wlan[1].mac 	numAckSend 	871
scalar NetworkMultiRadioIPv4.mobileHost[3].wlan[1].mac 	numRetry 	0
scalar NetworkMultiRadioIPv4.mobileHost[3].wlan[2].mgmt 	"packets received by queue" 	2075
scalar NetworkMultiRadioIPv4.mobileHost[3].wlan[2].mgmt 	"packets dropped by queue" 	0
scalar NetworkMultiRadioIPv4.mobileHost[3].wlan[2].mac 	"Mean Frame Length" 	222
scalar NetworkMultiRadioIPv4.mobileHost[3].wlan[2].mac 	"Frame Length stddev" 	0
scalar NetworkMultiRadioIPv4.mobileHost[3].wlan[2].mac 	"Sent Throughput" 	0.17244951671268
scalar NetworkMultiRadioIPv4.mobileHost[3].wlan[2].mac 	"CW medio" 	104.11529318542
scalar NetworkMultiRadioIPv4.mobileHost[3].wlan[2].mac 	"CW max" 	1019
scalar NetworkMultiRadioIPv4.mobileHost[3].wlan[2].mac 	"CW dev" 	178.2468756036
scalar NetworkMultiRadioIPv4.mobileHost[3].wlan[2].mac 	"Mean service time" 	0.011811009484578
scalar NetworkMultiRadioIPv4.mobileHost[3].wlan[2].mac 	numSent 	1942
scalar NetworkMultiRadioIPv4.mobileHost[3].wlan[2].mac 	numSentWithoutRetry 	797
scalar NetworkMultiRadioIPv4.mobileHost[3].wlan[2].mac 	numReceived 	727
scalar NetworkMultiRadioIPv4.mobileHost[3].wlan[2].mac 	numSelfReceived 	2075
scalar NetworkMultiRadioIPv4.mobileHost[3].wlan[2].mac 	numSentBroadcast 	-1
scalar NetworkMultiRadioIPv4.mobileHost[3].wlan[2].mac 	numReceivedBroadcast 	0
scalar NetworkMultiRadioIPv4.mobileHost[3].wlan[2].mac 	numReceivedOther 	7662
scalar NetworkMultiRadioIPv4.mobileHost[3].wlan[2].mac 	numCollision 	5504
scalar NetworkMultiRadioIPv4.mobileHost[3].wlan[2].mac 	numGivenUp 	133
scalar NetworkMultiRadioIPv4.mobileHost[3].wlan[2].mac 	numAckSend 	727
scalar NetworkMultiRadioIPv4.mobileHost[3].wlan[2].mac 	numRetry 	3538
scalar NetworkMultiRadioIPv4.mobileHost[3].manetRouting.manetmanager.manetroutingprotocol 	"Position X" 	450
scalar NetworkMultiRadioIPv4.mobileHost[3].manetRouting.manetmanager.manetroutingprotocol 	"Position Y" 	0
scalar NetworkMultiRadioIPv4.mobileHost[3].manetRouting.manetmanager.manetroutingprotocol 	lonelyCount 	0
scalar NetworkMultiRadioIPv4.mobileHost[3].manetRouting.manetmanager.manetroutingprotocol 	noNextHopCount 	0
scalar NetworkMultiRadioIPv4.mobileHost[3].manetRouting.manetmanager.manetroutingprotocol 	"Forwarding rate" 	0.64210526315789
scalar NetworkMultiRadioIPv4.mobileHost[3].manetRouting.manetmanager.manetroutingprotocol 	Load 	0.45417982363398
scalar NetworkMultiRadioIPv4.mobileHost[3].manetRouting.manetmanager.manetroutingprotocol 	"Interarrival time" 	0.0058122612308831
scalar NetworkMultiRadioIPv4.mobileHost[4].udpApp[0] 	"Total send" 	927
scalar NetworkMultiRadioIPv4.mobileHost[4].udpApp[0] 	"Total received" 	1207
scalar NetworkMultiRadioIPv4.mobileHost[4].udpApp[0] 	"Total deleted" 	283
scalar NetworkMultiRadioIPv4.mobileHost[4].udpApp[0] 	"Mean delay" 	0.025141532483354
scalar NetworkMultiRadioIPv4.mobileHost[4].udpApp[0] 	"Min delay" 	9.05e-05
scalar NetworkMultiRadioIPv4.mobileHost[4].udpApp[0] 	"Max delay" 	0.232125591865
scalar NetworkMultiRadioIPv4.mobileHost[4].udpApp[0] 	"Deviation delay" 	0.035565598490238
scalar NetworkMultiRadioIPv4.mobileHost[4].udpApp[0] 	"TTL28 NumOfBurstsReceived" 	1
scalar NetworkMultiRadioIPv4.mobileHost[4].udpApp[0] 	"TTL28 NumOfPacketsReceived" 	354
scalar NetworkMultiRadioIPv4.mobileHost[4].udpApp[0] 	"TTL31 NumOfBurstsReceived" 	1
scalar NetworkMultiRadioIPv4.mobileHost[4].udpApp[0] 	"TTL31 NumOfPacketsReceived" 	853
scalar NetworkMultiRadioIPv4.mobileHost[4].udpApp[1] 	"Total send" 	0
scalar NetworkMultiRadioIPv4.mobileHost[4].udpApp[1] 	"Total received" 	0
scalar NetworkMultiRadioIPv4.mobileHost[4].udpApp[1] 	"Total deleted" 	0
scalar NetworkMultiRadioIPv4.mobileHost[4].udpApp[1] 	"Mean delay" 	0
scalar NetworkMultiRadioIPv4.mobileHost[4].udpApp[1] 	"Min delay" 	0
scalar NetworkMultiRadioIPv4.mobileHost[4].udpApp[1] 	"Max delay" 	0
scalar NetworkMultiRadioIPv4.mobileHost[4].udpApp[1] 	"Deviation delay" 	nan
scalar NetworkMultiRadioIPv4.mobileHost[4].udpApp[2] 	"Total send" 	0
scalar NetworkMultiRadioIPv4.mobileHost[4].udpApp[2] 	"Total received" 	0
scalar NetworkMultiRadioIPv4.mobileHost[4].udpApp[2] 	"Total deleted" 	0
scalar NetworkMultiRadioIPv4.mobileHost[4].udpApp[2] 	"Mean delay" 	0
scalar NetworkMultiRadioIPv4.mobileHost[4].udpApp[2] 	"Min delay" 	0
scalar NetworkMultiRadioIPv4.mobileHost[4].udpApp[2] 	"Max delay" 	0
scalar NetworkMultiRadioIPv4.mobileHost[4].udpApp[2] 	"Deviation delay" 	nan
scalar NetworkMultiRadioIPv4.mobileHost[4].pingApp 	"Pings sent" 	0
scalar NetworkMultiRadioIPv4.mobileHost[4].wlan[0].mgmt 	"packets received by queue" 	1808
scalar NetworkMultiRadioIPv4.mobileHost[4].wlan[0].mgmt 	"packets dropped by queue" 	0
scalar NetworkMultiRadioIPv4.mobileHost[4].wlan[0].mac 	"Mean Frame Length" 	222
scalar NetworkMultiRadioIPv4.mobileHost[4].wlan[0].mac 	"Frame Length stddev" 	0
scalar NetworkMultiRadioIPv4.mobileHost[4].wlan[0].mac 	"Sent Throughput" 	0.15611032460396
scalar NetworkMultiRadioIPv4.mobileHost[4].wlan[0].mac 	"CW medio" 	89.745249242633
scalar NetworkMultiRadioIPv4.mobileHost[4].wlan[0].mac 	"CW max" 	1007
scalar NetworkMultiRadioIPv4.mobileHost[4].wlan[0].mac 	"CW dev" 	158.17950482073
scalar NetworkMultiRadioIPv4.mobileHost[4].wlan[0].mac 	"Mean service time" 	0.0064658326772474
scalar NetworkMultiRadioIPv4.mobileHost[4].wlan[0].mac 	numSent 	1758
scalar NetworkMultiRadioIPv4.mobileHost[4].wlan[0].mac 	numSentWithoutRetry 	748
scalar NetworkMultiRadioIPv4.mobileHost[4].wlan[0].mac 	numReceived 	549
scalar NetworkMultiRadioIPv4.mobileHost[4].wlan[0].mac 	numSelfReceived 	1808
scalar NetworkMultiRadioIPv4.mobileHost[4].wlan[0].mac 	numSentBroadcast 	-1
scalar NetworkMultiRadioIPv4.mobileHost[4].wlan[0].mac 	numReceivedBroadcast 	0
scalar NetworkMultiRadioIPv4.mobileHost[4].wlan[0].mac 	numReceivedOther 	7939
scalar NetworkMultiRadioIPv4.mobileHost[4].wlan[0].mac 	numCollision 	6694
scalar NetworkMultiRadioIPv4.mobileHost[4].wlan[0].mac 	numGivenUp 	50
scalar NetworkMultiRadioIPv4.mobileHost[4].wlan[0].mac 	numAckSend 	549
scalar NetworkMultiRadioIPv4.mobileHost[4].wlan[0].mac 	numRetry 	2541
scalar NetworkMultiRadioIPv4.mobileHost[4].wlan[1].mgmt 	"packets received by queue" 	4
scalar NetworkMultiRadioIPv4.mobileHost[4].wlan[1].mgmt 	"packets dropped by queue" 	0
scalar NetworkMultiRadioIPv4.mobileHost[4].wlan[1].mac 	"Mean Frame Length" 	222
scalar NetworkMultiRadioIPv4.mobileHost[4].wlan[1].mac 	"Frame Length stddev" 	0
scalar NetworkMultiRadioIPv4.mobileHost[4].wlan[1].mac 	"Sent Throughput" 	0.00035519982845042
scalar NetworkMultiRadioIPv4.mobileHost[4].wlan[1].mac 	"CW medio" 	37.857142857143
scalar NetworkMultiRadioIPv4.mobileHost[4].wlan[1].mac 	"CW max" 	90
scalar NetworkMultiRadioIPv4.mobileHost[4].wlan[1].mac 	"CW dev" 	29.162924930058
scalar NetworkMultiRadioIPv4.mobileHost[4].wlan[1].mac 	"Mean service time" 	0.00147386233975
scalar NetworkMultiRadioIPv4.mobileHost[4].wlan[1].mac 	numSent 	4
scalar NetworkMultiRadioIPv4.mobileHost[4].wlan[1].mac 	numSentWithoutRetry 	0
scalar NetworkMultiRadioIPv4.mobileHost[4].wlan[1].mac 	numReceived 	1
scalar NetworkMultiRadioIPv4.mobileHost[4].wlan[1].mac 	numSelfReceived 	4
scalar NetworkMultiRadioIPv4.mobileHost[4].wlan[1].mac 	numSentBroadcast 	-1
scalar NetworkMultiRadioIPv4.mobileHost[4].wlan[1].mac 	numReceivedBroadcast 	0
scalar NetworkMultiRadioIPv4.mobileHost[4].wlan[1].mac 	numReceivedOther 	6090
scalar NetworkMultiRadioIPv4.mobileHost[4].wlan[1].mac 	numCollision 	4020
scalar NetworkMultiRadioIPv4.mobileHost[4].wlan[1].mac 	numGivenUp 	0
scalar NetworkMultiRadioIPv4.mobileHost[4].wlan[1].mac 	numAckSend 	1
scalar NetworkMultiRadioIPv4.mobileHost[4].wlan[1].mac 	numRetry 	5
scalar NetworkMultiRadioIPv4.mobileHost[4].wlan[2].mgmt 	"packets received by queue" 	0
scalar NetworkMultiRadioIPv4.mobileHost[4].wlan[2].mgmt 	"packets dropped by queue" 	0
scalar NetworkMultiRadioIPv4.mobileHost[4].wlan[2].mac 	"Mean Frame Length" 	0
scalar NetworkMultiRadioIPv4.mobileHost[4].wlan[2].mac 	"Frame Length stddev" 	nan
scalar NetworkMultiRadioIPv4.mobileHost[4].wlan[2].mac 	"Sent Throughput" 	0
scalar NetworkMultiRadioIPv4.mobileHost[4].wlan[2].mac 	"CW medio" 	0
scalar NetworkMultiRadioIPv4.mobileHost[4].wlan[2].mac 	"CW max" 	0
scalar NetworkMultiRadioIPv4.mobileHost[4].wlan[2].mac 	"CW dev" 	nan
scalar NetworkMultiRadioIPv4.mobileHost[4].wlan[2].mac 	"Mean service time" 	0
scalar NetworkMultiRadioIPv4.mobileHost[4].wlan[2].mac 	numSent 	0
scalar NetworkMultiRadioIPv4.mobileHost[4].wlan[2].mac 	numSentWithoutRetry 	0
scalar NetworkMultiRadioIPv4.mobileHost[4].wlan[2].mac 	numReceived 	1825
scalar NetworkMultiRadioIPv4.mobileHost[4].wlan[2].mac 	numSelfReceived 	0
scalar NetworkMultiRadioIPv4.mobileHost[4].wlan[2].mac 	numSentBroadcast 	-1
scalar NetworkMultiRadioIPv4.mobileHost[4].wlan[2].mac 	numReceivedBroadcast 	0
scalar NetworkMultiRadioIPv4.mobileHost[4].wlan[2].mac 	numReceivedOther 	7640
scalar NetworkMultiRadioIPv4.mobileHost[4].wlan[2].mac 	numCollision 	9154
scalar NetworkMultiRadioIPv4.mobileHost[4].wlan[2].mac 	numGivenUp 	0
scalar NetworkMultiRadioIPv4.mobileHost[4].wlan[2].mac 	numAckSend 	1825
scalar NetworkMultiRadioIPv4.mobileHost[4].wlan[2].mac 	numRetry 	0
scalar NetworkMultiRadioIPv4.mobileHost[4].manetRouting.manetmanager.manetroutingprotocol 	"Position X" 	600
scalar NetworkMultiRadioIPv4.mobileHost[4].manetRouting.manetmanager.manetroutingprotocol 	"Position Y" 	0
scalar NetworkMultiRadioIPv4.mobileHost[4].manetRouting.manetmanager.manetroutingprotocol 	lonelyCount 	0
scalar NetworkMultiRadioIPv4.mobileHost[4].manetRouting.manetmanager.manetroutingprotocol 	noNextHopCount 	0
scalar NetworkMultiRadioIPv4.mobileHost[4].manetRouting.manetmanager.manetroutingprotocol 	"Forwarding rate" 	0.50877192982456
scalar NetworkMultiRadioIPv4.mobileHost[4].manetRouting.manetmanager.manetroutingprotocol 	Load 	0.18455175068376
scalar NetworkMultiRadioIPv4.mobileHost[4].manetRouting.manetmanager.manetroutingprotocol 	"Interarrival time" 	0.010484538666508
scalar NetworkMultiRadioIPv4.mobileHost[5].udpApp[0] 	"Total send" 	0
scalar NetworkMultiRadioIPv4.mobileHost[5].udpApp[0] 	"Total received" 	1111
scalar NetworkMultiRadioIPv4.mobileHost[5].udpApp[0] 	"Total deleted" 	368
scalar NetworkMultiRadioIPv4.mobileHost[5].udpApp[0] 	"Mean delay" 	0.027656925661238
scalar NetworkMultiRadioIPv4.mobileHost[5].udpApp[0] 	"Min delay" 	9.05e-05
scalar NetworkMultiRadioIPv4.mobileHost[5].udpApp[0] 	"Max delay" 	0.474567841708
scalar NetworkMultiRadioIPv4.mobileHost[5].udpApp[0] 	"Deviation delay" 	0.05973195933244
scalar NetworkMultiRadioIPv4.mobileHost[5].udpApp[0] 	"TTL29 NumOfBurstsReceived" 	1
scalar NetworkMultiRadioIPv4.mobileHost[5].udpApp[0] 	"TTL29 NumOfPacketsReceived" 	209
scalar NetworkMultiRadioIPv4.mobileHost[5].udpApp[0] 	"TTL31 NumOfBurstsReceived" 	1
scalar NetworkMultiRadioIPv4.mobileHost[5].udpApp[0] 	"TTL31 NumOfPacketsReceived" 	902
scalar NetworkMultiRadioIPv4.mobileHost[5].udpApp[1] 	"Total send" 	927
scalar NetworkMultiRadioIPv4.mobileHost[5].udpApp[1] 	"Total received" 	0
scalar NetworkMultiRadioIPv4.mobileHost[5].udpApp[1] 	"Total deleted" 	0
scalar NetworkMultiRadioIPv4.mobileHost[5].udpApp[1] 	"Mean delay" 	0
scalar NetworkMultiRadioIPv4.mobileHost[5].udpApp[1] 	"Min delay" 	0
scalar NetworkMultiRadioIPv4.mobileHost[5].udpApp[1] 	"Max delay" 	0
scalar NetworkMultiRadioIPv4.mobileHost[5].udpApp[1] 	"Deviation delay" 	nan
scalar NetworkMultiRadioIPv4.mobileHost[5].udpApp[2] 	"Total send" 	0
scalar NetworkMultiRadioIPv4.mobileHost[5].udpApp[2] 	"Total received" 	0
scalar NetworkMultiRadioIPv4.mobileHost[5].udpApp[2] 	"Total deleted" 	0
scalar NetworkMultiRadioIPv4.mobileHost[5].udpApp[2] 	"Mean delay" 	0
scalar NetworkMultiRadioIPv4.mobileHost[5].udpApp[2] 	"Min delay" 	0
scalar NetworkMultiRadioIPv4.mobileHost[5].udpApp[2] 	"Max delay" 	0
scalar NetworkMultiRadioIPv4.mobileHost[5].udpApp[2] 	"Deviation delay" 	nan
scalar NetworkMultiRadioIPv4.mobileHost[5].pingApp 	"Pings sent" 	0
scalar NetworkMultiRadioIPv4.mobileHost[5].wlan[0].mgmt 	"packets received by queue" 	1
scalar NetworkMultiRadioIPv4.mobileHost[5].wlan[0].mgmt 	"packets dropped by queue" 	0
scalar NetworkMultiRadioIPv4.mobileHost[5].wlan[0].mac 	"Mean Frame Length" 	222
scalar NetworkMultiRadioIPv4.mobileHost[5].wlan[0].mac 	"Frame Length stddev" 	nan
scalar NetworkMultiRadioIPv4.mobileHost[5].wlan[0].mac 	"Sent Throughput" 	8.8799957112604e-05
scalar NetworkMultiRadioIPv4.mobileHost[5].wlan[0].mac 	"CW medio" 	63
scalar NetworkMultiRadioIPv4.mobileHost[5].wlan[0].mac 	"CW max" 	120
scalar NetworkMultiRadioIPv4.mobileHost[5].wlan[0].mac 	"CW dev" 	80.610173055266
scalar NetworkMultiRadioIPv4.mobileHost[5].wlan[0].mac 	"Mean service time" 	0.001725
scalar NetworkMultiRadioIPv4.mobileHost[5].wlan[0].mac 	numSent 	1
scalar NetworkMultiRadioIPv4.mobileHost[5].wlan[0].mac 	numSentWithoutRetry 	0
scalar NetworkMultiRadioIPv4.mobileHost[5].wlan[0].mac 	numReceived 	900
scalar NetworkMultiRadioIPv4.mobileHost[5].wlan[0].mac 	numSelfReceived 	1
scalar NetworkMultiRadioIPv4.mobileHost[5].wlan[0].mac 	numSentBroadcast 	-1
scalar NetworkMultiRadioIPv4.mobileHost[5].wlan[0].mac 	numReceivedBroadcast 	0
scalar NetworkMultiRadioIPv4.mobileHost[5].wlan[0].mac 	numReceivedOther 	4745
scalar NetworkMultiRadioIPv4.mobileHost[5].wlan[0].mac 	numCollision 	5226
scalar NetworkMultiRadioIPv4.mobileHost[5].wlan[0].mac 	numGivenUp 	0
scalar NetworkMultiRadioIPv4.mobileHost[5].wlan[0].mac 	numAckSend 	900
scalar NetworkMultiRadioIPv4.mobileHost[5].wlan[0].mac 	numRetry 	2
scalar NetworkMultiRadioIPv4.mobileHost[5].wlan[1].mgmt 	"packets received by queue" 	0
scalar NetworkMultiRadioIPv4.mobileHost[5].wlan[1].mgmt 	"packets dropped by queue" 	0
scalar NetworkMultiRadioIPv4.mobileHost[5].wlan[1].mac 	"Mean Frame Length" 	0
scalar NetworkMultiRadioIPv4.mobileHost[5].wlan[1].mac 	"Frame Length stddev" 	nan
scalar NetworkMultiRadioIPv4.mobileHost[5].wlan[1].mac 	"Sent Throughput" 	0
scalar NetworkMultiRadioIPv4.mobileHost[5].wlan[1].mac 	"CW medio" 	0
scalar NetworkMultiRadioIPv4.mobileHost[5].wlan[1].mac 	"CW max" 	0
scalar NetworkMultiRadioIPv4.mobileHost[5].wlan[1].mac 	"CW dev" 	nan
scalar NetworkMultiRadioIPv4.mobileHost[5].wlan[1].mac 	"Mean service time" 	0
scalar NetworkMultiRadioIPv4.mobileHost[5].wlan[1].mac 	numSent 	0
scalar NetworkMultiRadioIPv4.mobileHost[5].wlan[1].mac 	numSentWithoutRetry 	0
scalar NetworkMultiRadioIPv4.mobileHost[5].wlan[1].mac 	numReceived 	3
scalar NetworkMultiRadioIPv4.mobileHost[5].wlan[1].mac 	numSelfReceived 	0
scalar NetworkMultiRadioIPv4.mobileHost[5].wlan[1].mac 	numSentBroadcast 	-1
scalar NetworkMultiRadioIPv4.mobileHost[5].wlan[1].mac 	numReceivedBroadcast 	0
scalar NetworkMultiRadioIPv4.mobileHost[5].wlan[1].mac 	numReceivedOther 	2305
scalar NetworkMultiRadioIPv4.mobileHost[5].wlan[1].mac 	numCollision 	2572
scalar NetworkMultiRadioIPv4.mobileHost[5].wlan[1].mac 	numGivenUp 	0
scalar NetworkMultiRadioIPv4.mobileHost[5].wlan[1].mac 	numAckSend 	3
scalar NetworkMultiRadioIPv4.mobileHost[5].wlan[1].mac 	numRetry 	0
scalar NetworkMultiRadioIPv4.mobileHost[5].wlan[2].mgmt 	"packets received by queue" 	921
scalar NetworkMultiRadioIPv4.mobileHost[5].wlan[2].mgmt 	"packets dropped by queue" 	0
scalar NetworkMultiRadioIPv4.mobileHost[5].wlan[2].mac 	"Mean Frame Length" 	222
scalar NetworkMultiRadioIPv4.mobileHost[5].wlan[2].mac 	"Frame Length stddev" 	0
scalar NetworkMultiRadioIPv4.mobileHost[5].wlan[2].mac 	"Sent Throughput" 	0.078499162087542
scalar NetworkMultiRadioIPv4.mobileHost[5].wlan[2].mac 	"CW medio" 	109.51247600768
scalar NetworkMultiRadioIPv4.mobileHost[5].wlan[2].mac 	"CW max" 	1019
scalar NetworkMultiRadioIPv4.mobileHost[5].wlan[2].mac 	"CW dev" 	171.91106764009
scalar NetworkMultiRadioIPv4.mobileHost[5].wlan[2].mac 	"Mean service time" 	0.0025096138672104
scalar NetworkMultiRadioIPv4.mobileHost[5].wlan[2].mac 	numSent 	884
scalar NetworkMultiRadioIPv4.mobileHost[5].wlan[2].mac 	numSentWithoutRetry 	368
scalar NetworkMultiRadioIPv4.mobileHost[5].wlan[2].mac 	numReceived 	576
scalar NetworkMultiRadioIPv4.mobileHost[5].wlan[2].mac 	numSelfReceived 	921
scalar NetworkMultiRadioIPv4.mobileHost[5].wlan[2].mac 	numSentBroadcast 	-1
scalar NetworkMultiRadioIPv4.mobileHost[5].wlan[2].mac 	numReceivedBroadcast 	0
scalar NetworkMultiRadioIPv4.mobileHost[5].wlan[2].mac 	numReceivedOther 	3652
scalar NetworkMultiRadioIPv4.mobileHost[5].wlan[2].mac 	numCollision 	2924
scalar NetworkMultiRadioIPv4.mobileHost[5].wlan[2].mac 	numGivenUp 	37
scalar NetworkMultiRadioIPv4.mobileHost[5].wlan[2].mac 	numAckSend 	576
scalar NetworkMultiRadioIPv4.mobileHost[5].wlan[2].mac 	numRetry 	1382
scalar NetworkMultiRadioIPv4.mobileHost[5].manetRouting.manetmanager.manetroutingprotocol 	"Position X" 	750
scalar NetworkMultiRadioIPv4.mobileHost[5].manetRouting.manetmanager.manetroutingprotocol 	"Position Y" 	0
scalar NetworkMultiRadioIPv4.mobileHost[5].manetRouting.manetmanager.manetroutingprotocol 	lonelyCount 	0
scalar NetworkMultiRadioIPv4.mobileHost[5].manetRouting.manetmanager.manetroutingprotocol 	noNextHopCount 	0
scalar NetworkMultiRadioIPv4.mobileHost[5].manetRouting.manetmanager.manetroutingprotocol 	"Forwarding rate" 	0
scalar NetworkMultiRadioIPv4.mobileHost[5].manetRouting.manetmanager.manetroutingprotocol 	Load 	0.070144796370018
scalar NetworkMultiRadioIPv4.mobileHost[5].manetRouting.manetmanager.manetroutingprotocol 	"Interarrival time" 	0.02060329453765
scalar NetworkMultiRadioIPv4.mobileHost[6].udpApp[0] 	"Total send" 	0
scalar NetworkMultiRadioIPv4.mobileHost[6].udpApp[0] 	"Total received" 	1305
scalar NetworkMultiRadioIPv4.mobileHost[6].udpApp[0] 	"Total deleted" 	214
scalar NetworkMultiRadioIPv4.mobileHost[6].udpApp[0] 	"Mean delay" 	0.046892989219114
scalar NetworkMultiRadioIPv4.mobileHost[6].udpApp[0] 	"Min delay" 	9.05e-05
scalar NetworkMultiRadioIPv4.mobileHost[6].udpApp[0] 	"Max delay" 	0.274262657965
scalar NetworkMultiRadioIPv4.mobileHost[6].udpApp[0] 	"Deviation delay" 	0.047298971798236
scalar NetworkMultiRadioIPv4.mobileHost[6].udpApp[0] 	"TTL28 NumOfBurstsReceived" 	1
scalar NetworkMultiRadioIPv4.mobileHost[6].udpApp[0] 	"TTL28 NumOfPacketsReceived" 	401
scalar NetworkMultiRadioIPv4.mobileHost[6].udpApp[0] 	"TTL31 NumOfBurstsReceived" 	1
scalar NetworkMultiRadioIPv4.mobileHost[6].udpApp[0] 	"TTL31 NumOfPacketsReceived" 	904
scalar NetworkMultiRadioIPv4.mobileHost[6].udpApp[1] 	"Total send" 	926
scalar NetworkMultiRadioIPv4.mobileHost[6].udpApp[1] 	"Total received" 	0
scalar NetworkMultiRadioIPv4.mobileHost[6].udpApp[1] 	"Total deleted" 	0
scalar NetworkMultiRadioIPv4.mobileHost[6].udpApp[1] 	"Mean delay" 	0
scalar NetworkMultiRadioIPv4.mobileHost[6].udpApp[1] 	"Min delay" 	0
scalar NetworkMultiRadioIPv4.mobileHost[6].udpApp[1] 	"Max delay" 	0
scalar NetworkMultiRadioIPv4.mobileHost[6].udpApp[1] 	"Deviation delay" 	nan
scalar NetworkMultiRadioIPv4.mobileHost[6].udpApp[2] 	"Total send" 	0
scalar NetworkMultiRadioIPv4.mobileHost[6].udpApp[2] 	"Total received" 	0
scalar NetworkMultiRadioIPv4.mobileHost[6].udpApp[2] 	"Total deleted" 	0
scalar NetworkMultiRadioIPv4.mobileHost[6].udpApp[2] 	"Mean delay" 	0
scalar NetworkMultiRadioIPv4.mobileHost[6].udpApp[2] 	"Min delay" 	0
scalar NetworkMultiRadioIPv4.mobileHost[6].udpApp[2] 	"Max delay" 	0
scalar NetworkMultiRadioIPv4.mobileHost[6].udpApp[2] 	"Deviation delay" 	nan
scalar NetworkMultiRadioIPv4.mobileHost[6].pingApp 	"Pings sent" 	0
scalar NetworkMultiRadioIPv4.mobileHost[6].wlan[0].mgmt 	"packets received by queue" 	916
scalar NetworkMultiRadioIPv4.mobileHost[6].wlan[0].mgmt 	"packets dropped by queue" 	0
scalar NetworkMultiRadioIPv4.mobileHost[6].wlan[0].mac 	"Mean Frame Length" 	222
scalar NetworkMultiRadioIPv4.mobileHost[6].wlan[0].mac 	"Frame Length stddev" 	0
scalar NetworkMultiRadioIPv4.mobileHost[6].wlan[0].mac 	"Sent Throughput" 	0.06580076822044
scalar NetworkMultiRadioIPv4.mobileHost[6].wlan[0].mac 	"CW medio" 	154.99936808847
scalar NetworkMultiRadioIPv4.mobileHost[6].wlan[0].mac 	"CW max" 	1023
scalar NetworkMultiRadioIPv4.mobileHost[6].wlan[0].mac 	"CW dev" 	225.89452748353
scalar NetworkMultiRadioIPv4.mobileHost[6].wlan[0].mac 	"Mean service time" 	0.011274939443803
scalar NetworkMultiRadioIPv4.mobileHost[6].wlan[0].mac 	numSent 	741
scalar NetworkMultiRadioIPv4.mobileHost[6].wlan[0].mac 	numSentWithoutRetry 	186
scalar NetworkMultiRadioIPv4.mobileHost[6].wlan[0].mac 	numReceived 	905
scalar NetworkMultiRadioIPv4.mobileHost[6].wlan[0].mac 	numSelfReceived 	916
scalar NetworkMultiRadioIPv4.mobileHost[6].wlan[0].mac 	numSentBroadcast 	-1
scalar NetworkMultiRadioIPv4.mobileHost[6].wlan[0].mac 	numReceivedBroadcast 	0
scalar NetworkMultiRadioIPv4.mobileHost[6].wlan[0].mac 	numReceivedOther 	7302
scalar NetworkMultiRadioIPv4.mobileHost[6].wlan[0].mac 	numCollision 	7439
scalar NetworkMultiRadioIPv4.mobileHost[6].wlan[0].mac 	numGivenUp 	174
scalar NetworkMultiRadioIPv4.mobileHost[6].wlan[0].mac 	numAckSend 	905
scalar NetworkMultiRadioIPv4.mobileHost[6].wlan[0].mac 	numRetry 	2610
scalar NetworkMultiRadioIPv4.mobileHost[6].wlan[1].mgmt 	"packets received by queue" 	0
scalar NetworkMultiRadioIPv4.mobileHost[6].wlan[1].mgmt 	"packets dropped by queue" 	0
scalar NetworkMultiRadioIPv4.mobileHost[6].wlan[1].mac 	"Mean Frame Length" 	0
scalar NetworkMultiRadioIPv4.mobileHost[6].wlan[1].mac 	"Frame Length stddev" 	nan
scalar NetworkMultiRadioIPv4.mobileHost[6].wlan[1].mac 	"Sent Throughput" 	0
scalar NetworkMultiRadioIPv4.mobileHost[6].wlan[1].mac 	"CW medio" 	0
scalar NetworkMultiRadioIPv4.mobileHost[6].wlan[1].mac 	"CW max" 	0
scalar NetworkMultiRadioIPv4.mobileHost[6].wlan[1].mac 	"CW dev" 	nan
scalar NetworkMultiRadioIPv4.mobileHost[6].wlan[1].mac 	"Mean service time" 	0
scalar NetworkMultiRadioIPv4.mobileHost[6].wlan[1].mac 	numSent 	0
scalar NetworkMultiRadioIPv4.mobileHost[6].wlan[1].mac 	numSentWithoutRetry 	0
scalar NetworkMultiRadioIPv4.mobileHost[6].wlan[1].mac 	numReceived 	490
scalar NetworkMultiRadioIPv4.mobileHost[6].wlan[1].mac 	numSelfReceived 	0
scalar NetworkMultiRadioIPv4.mobileHost[6].wlan[1].mac 	numSentBroadcast 	-1
scalar NetworkMultiRadioIPv4.mobileHost[6].wlan[1].mac 	numReceivedBroadcast 	0
scalar NetworkMultiRadioIPv4.mobileHost[6].wlan[1].mac 	numReceivedOther 	4135
scalar NetworkMultiRadioIPv4.mobileHost[6].wlan[1].mac 	numCollision 	3266
scalar NetworkMultiRadioIPv4.mobileHost[6].wlan[1].mac 	numGivenUp 	0
scalar NetworkMultiRadioIPv4.mobileHost[6].wlan[1].mac 	numAckSend 	490
scalar NetworkMultiRadioIPv4.mobileHost[6].wlan[1].mac 	numRetry 	0
scalar NetworkMultiRadioIPv4.mobileHost[6].wlan[2].mgmt 	"packets received by queue" 	0
scalar NetworkMultiRadioIPv4.mobileHost[6].wlan[2].mgmt 	"packets dropped by queue" 	0
scalar NetworkMultiRadioIPv4.mobileHost[6].wlan[2].mac 	"Mean Frame Length" 	0
scalar NetworkMultiRadioIPv4.mobileHost[6].wlan[2].mac 	"Frame Length stddev" 	nan
scalar NetworkMultiRadioIPv4.mobileHost[6].wlan[2].mac 	"Sent Throughput" 	0
scalar NetworkMultiRadioIPv4.mobileHost[6].wlan[2].mac 	"CW medio" 	0
scalar NetworkMultiRadioIPv4.mobileHost[6].wlan[2].mac 	"CW max" 	0
scalar NetworkMultiRadioIPv4.mobileHost[6].wlan[2].mac 	"CW dev" 	nan
scalar NetworkMultiRadioIPv4.mobileHost[6].wlan[2].mac 	"Mean service time" 	0
scalar NetworkMultiRadioIPv4.mobileHost[6].wlan[2].mac 	numSent 	0
scalar NetworkMultiRadioIPv4.mobileHost[6].wlan[2].mac 	numSentWithoutRetry 	0
scalar NetworkMultiRadioIPv4.mobileHost[6].wlan[2].mac 	numReceived 	124
scalar NetworkMultiRadioIPv4.mobileHost[6].wlan[2].mac 	numSelfReceived 	0
scalar NetworkMultiRadioIPv4.mobileHost[6].wlan[2].mac 	numSentBroadcast 	-1
scalar NetworkMultiRadioIPv4.mobileHost[6].wlan[2].mac 	numReceivedBroadcast 	0
scalar NetworkMultiRadioIPv4.mobileHost[6].wlan[2].mac 	numReceivedOther 	7369
scalar NetworkMultiRadioIPv4.mobileHost[6].wlan[2].mac 	numCollision 	8067
scalar NetworkMultiRadioIPv4.mobileHost[6].wlan[2].mac 	numGivenUp 	0
scalar NetworkMultiRadioIPv4.mobileHost[6].wlan[2].mac 	numAckSend 	124
scalar NetworkMultiRadioIPv4.mobileHost[6].wlan[2].mac 	numRetry 	0
scalar NetworkMultiRadioIPv4.mobileHost[6].manetRouting.manetmanager.manetroutingprotocol 	"Position X" 	0
scalar NetworkMultiRadioIPv4.mobileHost[6].manetRouting.manetmanager.manetroutingprotocol 	"Position Y" 	150
scalar NetworkMultiRadioIPv4.mobileHost[6].manetRouting.manetmanager.manetroutingprotocol 	lonelyCount 	0
scalar NetworkMultiRadioIPv4.mobileHost[6].manetRouting.manetmanager.manetroutingprotocol 	noNextHopCount 	0
scalar NetworkMultiRadioIPv4.mobileHost[6].manetRouting.manetmanager.manetroutingprotocol 	"Forwarding rate" 	0
scalar NetworkMultiRadioIPv4.mobileHost[6].manetRouting.manetmanager.manetroutingprotocol 	Load 	0.50396903625625
scalar NetworkMultiRadioIPv4.mobileHost[6].manetRouting.manetmanager.manetroutingprotocol 	"Interarrival time" 	0.020719570186944
scalar NetworkMultiRadioIPv4.mobileHost[7].udpApp[0] 	"Total send" 	0
scalar NetworkMultiRadioIPv4.mobileHost[7].udpApp[0] 	"Total received" 	0
scalar NetworkMultiRadioIPv4.mobileHost[7].udpApp[0] 	"Total deleted" 	0
scalar NetworkMultiRadioIPv4.mobileHost[7].udpApp[0] 	"Mean delay" 	0
scalar NetworkMultiRadioIPv4.mobileHost[7].udpApp[0] 	"Min delay" 	0
scalar NetworkMultiRadioIPv4.mobileHost[7].udpApp[0] 	"Max delay" 	0
scalar NetworkMultiRadioIPv4.mobileHost[7].udpApp[0] 	"Deviation delay" 	nan
scalar NetworkMultiRadioIPv4.mobileHost[7].udpApp[1] 	"Total send" 	0
scalar NetworkMultiRadioIPv4.mobileHost[7].udpApp[1] 	"Total received" 	0
scalar NetworkMultiRadioIPv4.mobileHost[7].udpApp[1] 	"Total deleted" 	0
scalar NetworkMultiRadioIPv4.mobileHost[7].udpApp[1] 	"Mean delay" 	0
scalar NetworkMultiRadioIPv4.mobileHost[7].udpApp[1] 	"Min delay" 	0
scalar NetworkMultiRadioIPv4.mobileHost[7].udpApp[1] 	"Max delay" 	0
scalar NetworkMultiRadioIPv4.mobileHost[7].udpApp[1] 	"Deviation delay" 	nan
scalar NetworkMultiRadioIPv4.mobileHost[7].udpApp[2] 	"Total send" 	0
scalar NetworkMultiRadioIPv4.mobileHost[7].udpApp[2] 	"Total received" 	0
scalar NetworkMultiRadioIPv4.mobileHost[7].udpApp[2] 	"Total deleted" 	0
scalar NetworkMultiRadioIPv4.mobileHost[7].udpApp[2] 	"Mean delay" 	0
scalar NetworkMultiRadioIPv4.mobileHost[7].udpApp[2] 	"Min delay" 	0
scalar NetworkMultiRadioIPv4.mobileHost[7].udpApp[2] 	"Max delay" 	0
scalar NetworkMultiRadioIPv4.mobileHost[7].udpApp[2] 	"Deviation delay" 	nan
scalar NetworkMultiRadioIPv4.mobileHost[7].pingApp 	"Pings sent" 	0
scalar NetworkMultiRadioIPv4.mobileHost[7].wlan[0].mgmt 	"packets received by queue" 	1294
scalar NetworkMultiRadioIPv4.mobileHost[7].wlan[0].mgmt 	"packets dropped by queue" 	0
scalar NetworkMultiRadioIPv4.mobileHost[7].wlan[0].mac 	"Mean Frame Length" 	222
scalar NetworkMultiRadioIPv4.mobileHost[7].wlan[0].mac 	"Frame Length stddev" 	0
scalar NetworkMultiRadioIPv4.mobileHost[7].wlan[0].mac 	"Sent Throughput" 	0.10886874742005
scalar NetworkMultiRadioIPv4.mobileHost[7].wlan[0].mac 	"CW medio" 	88.071334648258
scalar NetworkMultiRadioIPv4.mobileHost[7].wlan[0].mac 	"CW max" 	1020
scalar NetworkMultiRadioIPv4.mobileHost[7].wlan[0].mac 	"CW dev" 	163.16025204145
scalar NetworkMultiRadioIPv4.mobileHost[7].wlan[0].mac 	"Mean service time" 	0.012704454953075
scalar NetworkMultiRadioIPv4.mobileHost[7].wlan[0].mac 	numSent 	1226
scalar NetworkMultiRadioIPv4.mobileHost[7].wlan[0].mac 	numSentWithoutRetry 	560
scalar NetworkMultiRadioIPv4.mobileHost[7].wlan[0].mac 	numReceived 	1683
scalar NetworkMultiRadioIPv4.mobileHost[7].wlan[0].mac 	numSelfReceived 	1293
scalar NetworkMultiRadioIPv4.mobileHost[7].wlan[0].mac 	numSentBroadcast 	-1
scalar NetworkMultiRadioIPv4.mobileHost[7].wlan[0].mac 	numReceivedBroadcast 	0
scalar NetworkMultiRadioIPv4.mobileHost[7].wlan[0].mac 	numReceivedOther 	8368
scalar NetworkMultiRadioIPv4.mobileHost[7].wlan[0].mac 	numCollision 	10671
scalar NetworkMultiRadioIPv4.mobileHost[7].wlan[0].mac 	numGivenUp 	65
scalar NetworkMultiRadioIPv4.mobileHost[7].wlan[0].mac 	numAckSend 	1683
scalar NetworkMultiRadioIPv4.mobileHost[7].wlan[0].mac 	numRetry 	1899
scalar NetworkMultiRadioIPv4.mobileHost[7].wlan[1].mgmt 	"packets received by queue" 	180
scalar NetworkMultiRadioIPv4.mobileHost[7].wlan[1].mgmt 	"packets dropped by queue" 	0
scalar NetworkMultiRadioIPv4.mobileHost[7].wlan[1].mac 	"Mean Frame Length" 	222
scalar NetworkMultiRadioIPv4.mobileHost[7].wlan[1].mac 	"Frame Length stddev" 	0
scalar NetworkMultiRadioIPv4.mobileHost[7].wlan[1].mac 	"Sent Throughput" 	0.015184792666255
scalar NetworkMultiRadioIPv4.mobileHost[7].wlan[1].mac 	"CW medio" 	91.100817438692
scalar NetworkMultiRadioIPv4.mobileHost[7].wlan[1].mac 	"CW max" 	1005
scalar NetworkMultiRadioIPv4.mobileHost[7].wlan[1].mac 	"CW dev" 	156.37517298506
scalar NetworkMultiRadioIPv4.mobileHost[7].wlan[1].mac 	"Mean service time" 	0.0037221222171696
scalar NetworkMultiRadioIPv4.mobileHost[7].wlan[1].mac 	numSent 	171
scalar NetworkMultiRadioIPv4.mobileHost[7].wlan[1].mac 	numSentWithoutRetry 	78
scalar NetworkMultiRadioIPv4.mobileHost[7].wlan[1].mac 	numReceived 	152
scalar NetworkMultiRadioIPv4.mobileHost[7].wlan[1].mac 	numSelfReceived 	180
scalar NetworkMultiRadioIPv4.mobileHost[7].wlan[1].mac 	numSentBroadcast 	-1
scalar NetworkMultiRadioIPv4.mobileHost[7].wlan[1].mac 	numReceivedBroadcast 	0
scalar NetworkMultiRadioIPv4.mobileHost[7].wlan[1].mac 	numReceivedOther 	11995
scalar NetworkMultiRadioIPv4.mobileHost[7].wlan[1].mac 	numCollision 	9089
scalar NetworkMultiRadioIPv4.mobileHost[7].wlan[1].mac 	numGivenUp 	9
scalar NetworkMultiRadioIPv4.mobileHost[7].wlan[1].mac 	numAckSend 	152
scalar NetworkMultiRadioIPv4.mobileHost[7].wlan[1].mac 	numRetry 	257
scalar NetworkMultiRadioIPv4.mobileHost[7].wlan[2].mgmt 	"packets received by queue" 	1422
scalar NetworkMultiRadioIPv4.mobileHost[7].wlan[2].mgmt 	"packets dropped by queue" 	0
scalar NetworkMultiRadioIPv4.mobileHost[7].wlan[2].mac 	"Mean Frame Length" 	222
scalar NetworkMultiRadioIPv4.mobileHost[7].wlan[2].mac 	"Frame Length stddev" 	0
scalar NetworkMultiRadioIPv4.mobileHost[7].wlan[2].mac 	"Sent Throughput" 	0.12156714128716
scalar NetworkMultiRadioIPv4.mobileHost[7].wlan[2].mac 	"CW medio" 	80.695235049568
scalar NetworkMultiRadioIPv4.mobileHost[7].wlan[2].mac 	"CW max" 	1018
scalar NetworkMultiRadioIPv4.mobileHost[7].wlan[2].mac 	"CW dev" 	153.5399174706
scalar NetworkMultiRadioIPv4.mobileHost[7].wlan[2].mac 	"Mean service time" 	0.0095268973210022
scalar NetworkMultiRadioIPv4.mobileHost[7].wlan[2].mac 	numSent 	1369
scalar NetworkMultiRadioIPv4.mobileHost[7].wlan[2].mac 	numSentWithoutRetry 	609
scalar NetworkMultiRadioIPv4.mobileHost[7].wlan[2].mac 	numReceived 	1061
scalar NetworkMultiRadioIPv4.mobileHost[7].wlan[2].mac 	numSelfReceived 	1422
scalar NetworkMultiRadioIPv4.mobileHost[7].wlan[2].mac 	numSentBroadcast 	-1
scalar NetworkMultiRadioIPv4.mobileHost[7].wlan[2].mac 	numReceivedBroadcast 	0
scalar NetworkMultiRadioIPv4.mobileHost[7].wlan[2].mac 	numReceivedOther 	13282
scalar NetworkMultiRadioIPv4.mobileHost[7].wlan[2].mac 	numCollision 	11259
scalar NetworkMultiRadioIPv4.mobileHost[7].wlan[2].mac 	numGivenUp 	52
scalar NetworkMultiRadioIPv4.mobileHost[7].wlan[2].mac 	numAckSend 	1061
scalar NetworkMultiRadioIPv4.mobileHost[7].wlan[2].mac 	numRetry 	1942
scalar NetworkMultiRadioIPv4.mobileHost[7].manetRouting.manetmanager.manetroutingprotocol 	"Position X" 	150
scalar NetworkMultiRadioIPv4.mobileHost[7].manetRouting.manetmanager.manetroutingprotocol 	"Position Y" 	150
scalar NetworkMultiRadioIPv4.mobileHost[7].manetRouting.manetmanager.manetroutingprotocol 	lonelyCount 	0
scalar NetworkMultiRadioIPv4.mobileHost[7].manetRouting.manetmanager.manetroutingprotocol 	noNextHopCount 	0
scalar NetworkMultiRadioIPv4.mobileHost[7].manetRouting.manetmanager.manetroutingprotocol 	"Forwarding rate" 	1
scalar NetworkMultiRadioIPv4.mobileHost[7].manetRouting.manetmanager.manetroutingprotocol 	Load 	0.50806399314316
scalar NetworkMultiRadioIPv4.mobileHost[7].manetRouting.manetmanager.manetroutingprotocol 	"Interarrival time" 	0.0065538114319886
scalar NetworkMultiRadioIPv4.mobileHost[8].udpApp[0] 	"Total send" 	928
scalar NetworkMultiRadioIPv4.mobileHost[8].udpApp[0] 	"Total received" 	0
scalar NetworkMultiRadioIPv4.mobileHost[8].udpApp[0] 	"Total deleted" 	0
scalar NetworkMultiRadioIPv4.mobileHost[8].udpApp[0] 	"Mean delay" 	0
scalar NetworkMultiRadioIPv4.mobileHost[8].udpApp[0] 	"Min delay" 	0
scalar NetworkMultiRadioIPv4.mobileHost[8].udpApp[0] 	"Max delay" 	0
scalar NetworkMultiRadioIPv4.mobileHost[8].udpApp[0] 	"Deviation delay" 	nan
scalar NetworkMultiRadioIPv4.mobileHost[8].udpApp[1] 	"Total send" 	928
scalar NetworkMultiRadioIPv4.mobileHost[8].udpApp[1] 	"Total received" 	0
scalar NetworkMultiRadioIPv4.mobileHost[8].udpApp[1] 	"Total deleted" 	0
scalar NetworkMultiRadioIPv4.mobileHost[8].udpApp[1] 	"Mean delay" 	0
scalar NetworkMultiRadioIPv4.mobileHost[8].udpApp[1] 	"Min delay" 	0
scalar NetworkMultiRadioIPv4.mobileHost[8].udpApp[1] 	"Max delay" 	0
scalar NetworkMultiRadioIPv4.mobileHost[8].udpApp[1] 	"Deviation delay" 	nan
scalar NetworkMultiRadioIPv4.mobileHost[8].udpApp[2] 	"Total send" 	928
scalar NetworkMultiRadioIPv4.mobileHost[8].udpApp[2] 	"Total received" 	0
scalar NetworkMultiRadioIPv4.mobileHost[8].udpApp[2] 	"Total deleted" 	0
scalar NetworkMultiRadioIPv4.mobileHost[8].udpApp[2] 	"Mean delay" 	0
scalar NetworkMultiRadioIPv4.mobileHost[8].udpApp[2] 	"Min delay" 	0
scalar NetworkMultiRadioIPv4.mobileHost[8].udpApp[2] 	"Max delay" 	0
scalar NetworkMultiRadioIPv4.mobileHost[8].udpApp[2] 	"Deviation delay" 	nan
scalar NetworkMultiRadioIPv4.mobileHost[8].pingApp 	"Pings sent" 	0
scalar NetworkMultiRadioIPv4.mobileHost[8].wlan[0].mgmt 	"packets received by queue" 	636
scalar NetworkMultiRadioIPv4.mobileHost[8].wlan[0].mgmt 	"packets dropped by queue" 	0
scalar NetworkMultiRadioIPv4.mobileHost[8].wlan[0].mac 	"Mean Frame Length" 	222
scalar NetworkMultiRadioIPv4.mobileHost[8].wlan[0].mac 	"Frame Length stddev" 	0
scalar NetworkMultiRadioIPv4.mobileHost[8].wlan[0].mac 	"Sent Throughput" 	0.052480774653549
scalar NetworkMultiRadioIPv4.mobileHost[8].wlan[0].mac 	"CW medio" 	103.0225747407
scalar NetworkMultiRadioIPv4.mobileHost[8].wlan[0].mac 	"CW max" 	1009
scalar NetworkMultiRadioIPv4.mobileHost[8].wlan[0].mac 	"CW dev" 	171.06262404743
scalar NetworkMultiRadioIPv4.mobileHost[8].wlan[0].mac 	"Mean service time" 	0.009220676374687
scalar NetworkMultiRadioIPv4.mobileHost[8].wlan[0].mac 	numSent 	591
scalar NetworkMultiRadioIPv4.mobileHost[8].wlan[0].mac 	numSentWithoutRetry 	211
scalar NetworkMultiRadioIPv4.mobileHost[8].wlan[0].mac 	numReceived 	690
scalar NetworkMultiRadioIPv4.mobileHost[8].wlan[0].mac 	numSelfReceived 	636
scalar NetworkMultiRadioIPv4.mobileHost[8].wlan[0].mac 	numSentBroadcast 	-1
scalar NetworkMultiRadioIPv4.mobileHost[8].wlan[0].mac 	numReceivedBroadcast 	0
scalar NetworkMultiRadioIPv4.mobileHost[8].wlan[0].mac 	numReceivedOther 	16044
scalar NetworkMultiRadioIPv4.mobileHost[8].wlan[0].mac 	numCollision 	12029
scalar NetworkMultiRadioIPv4.mobileHost[8].wlan[0].mac 	numGivenUp 	45
scalar NetworkMultiRadioIPv4.mobileHost[8].wlan[0].mac 	numAckSend 	690
scalar NetworkMultiRadioIPv4.mobileHost[8].wlan[0].mac 	numRetry 	1172
scalar NetworkMultiRadioIPv4.mobileHost[8].wlan[1].mgmt 	"packets received by queue" 	2599
scalar NetworkMultiRadioIPv4.mobileHost[8].wlan[1].mgmt 	"packets dropped by queue" 	0
scalar NetworkMultiRadioIPv4.mobileHost[8].wlan[1].mac 	"Mean Frame Length" 	222
scalar NetworkMultiRadioIPv4.mobileHost[8].wlan[1].mac 	"Frame Length stddev" 	0
scalar NetworkMultiRadioIPv4.mobileHost[8].wlan[1].mac 	"Sent Throughput" 	0.21773749484011
scalar NetworkMultiRadioIPv4.mobileHost[8].wlan[1].mac 	"CW medio" 	91.389827806122
scalar NetworkMultiRadioIPv4.mobileHost[8].wlan[1].mac 	"CW max" 	1022
scalar NetworkMultiRadioIPv4.mobileHost[8].wlan[1].mac 	"CW dev" 	162.9204984064
scalar NetworkMultiRadioIPv4.mobileHost[8].wlan[1].mac 	"Mean service time" 	0.02897608831523
scalar NetworkMultiRadioIPv4.mobileHost[8].wlan[1].mac 	numSent 	2452
scalar NetworkMultiRadioIPv4.mobileHost[8].wlan[1].mac 	numSentWithoutRetry 	1078
scalar NetworkMultiRadioIPv4.mobileHost[8].wlan[1].mac 	numReceived 	562
scalar NetworkMultiRadioIPv4.mobileHost[8].wlan[1].mac 	numSelfReceived 	2597
scalar NetworkMultiRadioIPv4.mobileHost[8].wlan[1].mac 	numSentBroadcast 	-1
scalar NetworkMultiRadioIPv4.mobileHost[8].wlan[1].mac 	numReceivedBroadcast 	0
scalar NetworkMultiRadioIPv4.mobileHost[8].wlan[1].mac 	numReceivedOther 	12457
scalar NetworkMultiRadioIPv4.mobileHost[8].wlan[1].mac 	numCollision 	9317
scalar NetworkMultiRadioIPv4.mobileHost[8].wlan[1].mac 	numGivenUp 	143
scalar NetworkMultiRadioIPv4.mobileHost[8].wlan[1].mac 	numAckSend 	562
scalar NetworkMultiRadioIPv4.mobileHost[8].wlan[1].mac 	numRetry 	3984
scalar NetworkMultiRadioIPv4.mobileHost[8].wlan[2].mgmt 	"packets received by queue" 	2496
scalar NetworkMultiRadioIPv4.mobileHost[8].wlan[2].mgmt 	"packets dropped by queue" 	0
scalar NetworkMultiRadioIPv4.mobileHost[8].wlan[2].mac 	"Mean Frame Length" 	222
scalar NetworkMultiRadioIPv4.mobileHost[8].wlan[2].mac 	"Frame Length stddev" 	0
scalar NetworkMultiRadioIPv4.mobileHost[8].wlan[2].mac 	"Sent Throughput" 	0.21089989814244
scalar NetworkMultiRadioIPv4.mobileHost[8].wlan[2].mac 	"CW medio" 	84.064753004005
scalar NetworkMultiRadioIPv4.mobileHost[8].wlan[2].mac 	"CW max" 	1019
scalar NetworkMultiRadioIPv4.mobileHost[8].wlan[2].mac 	"CW dev" 	158.18520680556
scalar NetworkMultiRadioIPv4.mobileHost[8].wlan[2].mac 	"Mean service time" 	0.14775832101184
scalar NetworkMultiRadioIPv4.mobileHost[8].wlan[2].mac 	numSent 	2375
scalar NetworkMultiRadioIPv4.mobileHost[8].wlan[2].mac 	numSentWithoutRetry 	1087
scalar NetworkMultiRadioIPv4.mobileHost[8].wlan[2].mac 	numReceived 	1695
scalar NetworkMultiRadioIPv4.mobileHost[8].wlan[2].mac 	numSelfReceived 	2496
scalar NetworkMultiRadioIPv4.mobileHost[8].wlan[2].mac 	numSentBroadcast 	-1
scalar NetworkMultiRadioIPv4.mobileHost[8].wlan[2].mac 	numReceivedBroadcast 	0
scalar NetworkMultiRadioIPv4.mobileHost[8].wlan[2].mac 	numReceivedOther 	16154
scalar NetworkMultiRadioIPv4.mobileHost[8].wlan[2].mac 	numCollision 	15784
scalar NetworkMultiRadioIPv4.mobileHost[8].wlan[2].mac 	numGivenUp 	120
scalar NetworkMultiRadioIPv4.mobileHost[8].wlan[2].mac 	numAckSend 	1695
scalar NetworkMultiRadioIPv4.mobileHost[8].wlan[2].mac 	numRetry 	3524
scalar NetworkMultiRadioIPv4.mobileHost[8].manetRouting.manetmanager.manetroutingprotocol 	"Position X" 	300
scalar NetworkMultiRadioIPv4.mobileHost[8].manetRouting.manetmanager.manetroutingprotocol 	"Position Y" 	150
scalar NetworkMultiRadioIPv4.mobileHost[8].manetRouting.manetmanager.manetroutingprotocol 	lonelyCount 	0
scalar NetworkMultiRadioIPv4.mobileHost[8].manetRouting.manetmanager.manetroutingprotocol 	noNextHopCount 	0
scalar NetworkMultiRadioIPv4.mobileHost[8].manetRouting.manetmanager.manetroutingprotocol 	"Forwarding rate" 	0.67003367003367
scalar NetworkMultiRadioIPv4.mobileHost[8].manetRouting.manetmanager.manetroutingprotocol 	Load 	0.86001509204348
scalar NetworkMultiRadioIPv4.mobileHost[8].manetRouting.manetmanager.manetroutingprotocol 	"Interarrival time" 	0.0033152463160007
scalar NetworkMultiRadioIPv4.mobileHost[9].udpApp[0] 	"Total send" 	927
scalar NetworkMultiRadioIPv4.mobileHost[9].udpApp[0] 	"Total received" 	660
scalar NetworkMultiRadioIPv4.mobileHost[9].udpApp[0] 	"Total deleted" 	575
scalar NetworkMultiRadioIPv4.mobileHost[9].udpApp[0] 	"Mean delay" 	0.2006906128686
scalar NetworkMultiRadioIPv4.mobileHost[9].udpApp[0] 	"Min delay" 	0.000911218226
scalar NetworkMultiRadioIPv4.mobileHost[9].udpApp[0] 	"Max delay" 	1.086204884355
scalar NetworkMultiRadioIPv4.mobileHost[9].udpApp[0] 	"Deviation delay" 	0.23834073429444
scalar NetworkMultiRadioIPv4.mobileHost[9].udpApp[0] 	"TTL28 NumOfBurstsReceived" 	1
scalar NetworkMultiRadioIPv4.mobileHost[9].udpApp[0] 	"TTL28 NumOfPacketsReceived" 	201
scalar NetworkMultiRadioIPv4.mobileHost[9].udpApp[0] 	"TTL29 NumOfBurstsReceived" 	1
scalar NetworkMultiRadioIPv4.mobileHost[9].udpApp[0] 	"TTL29 NumOfPacketsReceived" 	459
scalar NetworkMultiRadioIPv4.mobileHost[9].udpApp[1] 	"Total send" 	928
scalar NetworkMultiRadioIPv4.mobileHost[9].udpApp[1] 	"Total received" 	0
scalar NetworkMultiRadioIPv4.mobileHost[9].udpApp[1] 	"Total deleted" 	0
scalar NetworkMultiRadioIPv4.mobileHost[9].udpApp[1] 	"Mean delay" 	0
scalar NetworkMultiRadioIPv4.mobileHost[9].udpApp[1] 	"Min delay" 	0
scalar NetworkMultiRadioIPv4.mobileHost[9].udpApp[1] 	"Max delay" 	0
scalar NetworkMultiRadioIPv4.mobileHost[9].udpApp[1] 	"Deviation delay" 	nan
scalar NetworkMultiRadioIPv4.mobileHost[9].udpApp[2] 	"Total send" 	0
scalar NetworkMultiRadioIPv4.mobileHost[9].udpApp[2] 	"Total received" 	0
scalar NetworkMultiRadioIPv4.mobileHost[9].udpApp[2] 	"Total deleted" 	0
scalar NetworkMultiRadioIPv4.mobileHost[9].udpApp[2] 	"Mean delay" 	0
scalar NetworkMultiRadioIPv4.mobileHost[9].udpApp[2] 	"Min delay" 	0
scalar NetworkMultiRadioIPv4.mobileHost[9].udpApp[2] 	"Max delay" 	0
scalar NetworkMultiRadioIPv4.mobileHost[9].udpApp[2] 	"Deviation delay" 	nan
scalar NetworkMultiRadioIPv4.mobileHost[9].pingApp 	"Pings sent" 	0
scalar NetworkMultiRadioIPv4.mobileHost[9].wlan[0].mgmt 	"packets received by queue" 	1660
scalar NetworkMultiRadioIPv4.mobileHost[9].wlan[0].mgmt 	"packets dropped by queue" 	0
scalar NetworkMultiRadioIPv4.mobileHost[9].wlan[0].mac 	"Mean Frame Length" 	222
scalar NetworkMultiRadioIPv4.mobileHost[9].wlan[0].mac 	"Frame Length stddev" 	0
scalar NetworkMultiRadioIPv4.mobileHost[9].wlan[0].mac 	"Sent Throughput" 	0.14270153107996
scalar NetworkMultiRadioIPv4.mobileHost[9].wlan[0].mac 	"CW medio" 	81.088259109312
scalar NetworkMultiRadioIPv4.mobileHost[9].wlan[0].mac 	"CW max" 	1021
scalar NetworkMultiRadioIPv4.mobileHost[9].wlan[0].mac 	"CW dev" 	152.78920293777
scalar NetworkMultiRadioIPv4.mobileHost[9].wlan[0].mac 	"Mean service time" 	0.017436242564338
scalar NetworkMultiRadioIPv4.mobileHost[9].wlan[0].mac 	numSent 	1607
scalar NetworkMultiRadioIPv4.mobileHost[9].wlan[0].mac 	numSentWithoutRetry 	726
scalar NetworkMultiRadioIPv4.mobileHost[9].wlan[0].mac 	numReceived 	917
scalar NetworkMultiRadioIPv4.mobileHost[9].wlan[0].mac 	numSelfReceived 	1660
scalar NetworkMultiRadioIPv4.mobileHost[9].wlan[0].mac 	numSentBroadcast 	-1
scalar NetworkMultiRadioIPv4.mobileHost[9].wlan[0].mac 	numReceivedBroadcast 	0
scalar NetworkMultiRadioIPv4.mobileHost[9].wlan[0].mac 	numReceivedOther 	17757
scalar NetworkMultiRadioIPv4.mobileHost[9].wlan[0].mac 	numCollision 	14536
scalar NetworkMultiRadioIPv4.mobileHost[9].wlan[0].mac 	numGivenUp 	53
scalar NetworkMultiRadioIPv4.mobileHost[9].wlan[0].mac 	numAckSend 	917
scalar NetworkMultiRadioIPv4.mobileHost[9].wlan[0].mac 	numRetry 	2235
scalar NetworkMultiRadioIPv4.mobileHost[9].wlan[1].mgmt 	"packets received by queue" 	1074
scalar NetworkMultiRadioIPv4.mobileHost[9].wlan[1].mgmt 	"packets dropped by queue" 	0
scalar NetworkMultiRadioIPv4.mobileHost[9].wlan[1].mac 	"Mean Frame Length" 	222
scalar NetworkMultiRadioIPv4.mobileHost[9].wlan[1].mac 	"Frame Length stddev" 	0
scalar NetworkMultiRadioIPv4.mobileHost[9].wlan[1].mac 	"Sent Throughput" 	0.091641555740208
scalar NetworkMultiRadioIPv4.mobileHost[9].wlan[1].mac 	"CW medio" 	84.13130881095
scalar NetworkMultiRadioIPv4.mobileHost[9].wlan[1].mac 	"CW max" 	1022
scalar NetworkMultiRadioIPv4.mobileHost[9].wlan[1].mac 	"CW dev" 	158.05401801097
scalar NetworkMultiRadioIPv4.mobileHost[9].wlan[1].mac 	"Mean service time" 	0.0097214149735388
scalar NetworkMultiRadioIPv4.mobileHost[9].wlan[1].mac 	numSent 	1032
scalar NetworkMultiRadioIPv4.mobileHost[9].wlan[1].mac 	numSentWithoutRetry 	485
scalar NetworkMultiRadioIPv4.mobileHost[9].wlan[1].mac 	numReceived 	1587
scalar NetworkMultiRadioIPv4.mobileHost[9].wlan[1].mac 	numSelfReceived 	1074
scalar NetworkMultiRadioIPv4.mobileHost[9].wlan[1].mac 	numSentBroadcast 	-1
scalar NetworkMultiRadioIPv4.mobileHost[9].wlan[1].mac 	numReceivedBroadcast 	0
scalar NetworkMultiRadioIPv4.mobileHost[9].wlan[1].mac 	numReceivedOther 	16528
scalar NetworkMultiRadioIPv4.mobileHost[9].wlan[1].mac 	numCollision 	12514
scalar NetworkMultiRadioIPv4.mobileHost[9].wlan[1].mac 	numGivenUp 	42
scalar NetworkMultiRadioIPv4.mobileHost[9].wlan[1].mac 	numAckSend 	1587
scalar NetworkMultiRadioIPv4.mobileHost[9].wlan[1].mac 	numRetry 	1446
scalar NetworkMultiRadioIPv4.mobileHost[9].wlan[2].mgmt 	"packets received by queue" 	1854
scalar NetworkMultiRadioIPv4.mobileHost[9].wlan[2].mgmt 	"packets dropped by queue" 	0
scalar NetworkMultiRadioIPv4.mobileHost[9].wlan[2].mac 	"Mean Frame Length" 	222
scalar NetworkMultiRadioIPv4.mobileHost[9].wlan[2].mac 	"Frame Length stddev" 	0
scalar NetworkMultiRadioIPv4.mobileHost[9].wlan[2].mac 	"Sent Throughput" 	0.15895192323156
scalar NetworkMultiRadioIPv4.mobileHost[9].wlan[2].mac 	"CW medio" 	79.310719459198
scalar NetworkMultiRadioIPv4.mobileHost[9].wlan[2].mac 	"CW max" 	1023
scalar NetworkMultiRadioIPv4.mobileHost[9].wlan[2].mac 	"CW dev" 	147.83857469908
scalar NetworkMultiRadioIPv4.mobileHost[9].wlan[2].mac 	"Mean service time" 	0.015414123629413
scalar NetworkMultiRadioIPv4.mobileHost[9].wlan[2].mac 	numSent 	1790
scalar NetworkMultiRadioIPv4.mobileHost[9].wlan[2].mac 	numSentWithoutRetry 	801
scalar NetworkMultiRadioIPv4.mobileHost[9].wlan[2].mac 	numReceived 	1464
scalar NetworkMultiRadioIPv4.mobileHost[9].wlan[2].mac 	numSelfReceived 	1854
scalar NetworkMultiRadioIPv4.mobileHost[9].wlan[2].mac 	numSentBroadcast 	-1
scalar NetworkMultiRadioIPv4.mobileHost[9].wlan[2].mac 	numReceivedBroadcast 	0
scalar NetworkMultiRadioIPv4.mobileHost[9].wlan[2].mac 	numReceivedOther 	18167
scalar NetworkMultiRadioIPv4.mobileHost[9].wlan[2].mac 	numCollision 	13170
scalar NetworkMultiRadioIPv4.mobileHost[9].wlan[2].mac 	numGivenUp 	64
scalar NetworkMultiRadioIPv4.mobileHost[9].wlan[2].mac 	numAckSend 	1464
scalar NetworkMultiRadioIPv4.mobileHost[9].wlan[2].mac 	numRetry 	2535
scalar NetworkMultiRadioIPv4.mobileHost[9].manetRouting.manetmanager.manetroutingprotocol 	"Position X" 	450
scalar NetworkMultiRadioIPv4.mobileHost[9].manetRouting.manetmanager.manetroutingprotocol 	"Position Y" 	150
scalar NetworkMultiRadioIPv4.mobileHost[9].manetRouting.manetmanager.manetroutingprotocol 	lonelyCount 	0
scalar NetworkMultiRadioIPv4.mobileHost[9].manetRouting.manetmanager.manetroutingprotocol 	noNextHopCount 	0
scalar NetworkMultiRadioIPv4.mobileHost[9].manetRouting.manetmanager.manetroutingprotocol 	"Forwarding rate" 	0.7953216374269
scalar NetworkMultiRadioIPv4.mobileHost[9].manetRouting.manetmanager.manetroutingprotocol 	Load 	0.9803555630297
scalar NetworkMultiRadioIPv4.mobileHost[9].manetRouting.manetmanager.manetroutingprotocol 	"Interarrival time" 	0.0041410104065205
scalar NetworkMultiRadioIPv4.mobileHost[10].udpApp[0] 	"Total send" 	927
scalar NetworkMultiRadioIPv4.mobileHost[10].udpApp[0] 	"Total received" 	1218
scalar NetworkMultiRadioIPv4.mobileHost[10].udpApp[0] 	"Total deleted" 	461
scalar NetworkMultiRadioIPv4.mobileHost[10].udpApp[0] 	"Mean delay" 	0.017772340980161
scalar NetworkMultiRadioIPv4.mobileHost[10].udpApp[0] 	"Min delay" 	9.0707106e-05
scalar NetworkMultiRadioIPv4.mobileHost[10].udpApp[0] 	"Max delay" 	0.159346791347
scalar NetworkMultiRadioIPv4.mobileHost[10].udpApp[0] 	"Deviation delay" 	0.021396024084324
scalar NetworkMultiRadioIPv4.mobileHost[10].udpApp[0] 	"TTL30 NumOfBurstsReceived" 	1
scalar NetworkMultiRadioIPv4.mobileHost[10].udpApp[0] 	"TTL30 NumOfPacketsReceived" 	482
scalar NetworkMultiRadioIPv4.mobileHost[10].udpApp[0] 	"TTL31 NumOfBurstsReceived" 	1
scalar NetworkMultiRadioIPv4.mobileHost[10].udpApp[0] 	"TTL31 NumOfPacketsReceived" 	736
scalar NetworkMultiRadioIPv4.mobileHost[10].udpApp[1] 	"Total send" 	926
scalar NetworkMultiRadioIPv4.mobileHost[10].udpApp[1] 	"Total received" 	0
scalar NetworkMultiRadioIPv4.mobileHost[10].udpApp[1] 	"Total deleted" 	0
scalar NetworkMultiRadioIPv4.mobileHost[10].udpApp[1] 	"Mean delay" 	0
scalar NetworkMultiRadioIPv4.mobileHost[10].udpApp[1] 	"Min delay" 	0
scalar NetworkMultiRadioIPv4.mobileHost[10].udpApp[1] 	"Max delay" 	0
scalar NetworkMultiRadioIPv4.mobileHost[10].udpApp[1] 	"Deviation delay" 	nan
scalar NetworkMultiRadioIPv4.mobileHost[10].udpApp[2] 	"Total send" 	928
scalar NetworkMultiRadioIPv4.mobileHost[10].udpApp[2] 	"Total received" 	0
scalar NetworkMultiRadioIPv4.mobileHost[10].udpApp[2] 	"Total deleted" 	0
scalar NetworkMultiRadioIPv4.mobileHost[10].udpApp[2] 	"Mean delay" 	0
scalar NetworkMultiRadioIPv4.mobileHost[10].udpApp[2] 	"Min delay" 	0
scalar NetworkMultiRadioIPv4.mobileHost[10].udpApp[2] 	"Max delay" 	0
scalar NetworkMultiRadioIPv4.mobileHost[10].udpApp[2] 	"Deviation delay" 	nan
scalar NetworkMultiRadioIPv4.mobileHost[10].pingApp 	"Pings sent" 	0
scalar NetworkMultiRadioIPv4.mobileHost[10].wlan[0].mgmt 	"packets received by queue" 	1860
scalar NetworkMultiRadioIPv4.mobileHost[10].wlan[0].mgmt 	"packets dropped by queue" 	0
scalar NetworkMultiRadioIPv4.mobileHost[10].wlan[0].mac 	"Mean Frame Length" 	222
scalar NetworkMultiRadioIPv4.mobileHost[10].wlan[0].mac 	"Frame Length stddev" 	0
scalar NetworkMultiRadioIPv4.mobileHost[10].wlan[0].mac 	"Sent Throughput" 	0.14856232824939
scalar NetworkMultiRadioIPv4.mobileHost[10].wlan[0].mac 	"CW medio" 	107.98040977714
scalar NetworkMultiRadioIPv4.mobileHost[10].wlan[0].mac 	"CW max" 	1023
scalar NetworkMultiRadioIPv4.mobileHost[10].wlan[0].mac 	"CW dev" 	185.65600220056
scalar NetworkMultiRadioIPv4.mobileHost[10].wlan[0].mac 	"Mean service time" 	0.13393065318972
scalar NetworkMultiRadioIPv4.mobileHost[10].wlan[0].mac 	numSent 	1673
scalar NetworkMultiRadioIPv4.mobileHost[10].wlan[0].mac 	numSentWithoutRetry 	622
scalar NetworkMultiRadioIPv4.mobileHost[10].wlan[0].mac 	numReceived 	850
scalar NetworkMultiRadioIPv4.mobileHost[10].wlan[0].mac 	numSelfReceived 	1860
scalar NetworkMultiRadioIPv4.mobileHost[10].wlan[0].mac 	numSentBroadcast 	-1
scalar NetworkMultiRadioIPv4.mobileHost[10].wlan[0].mac 	numReceivedBroadcast 	0
scalar NetworkMultiRadioIPv4.mobileHost[10].wlan[0].mac 	numReceivedOther 	15910
scalar NetworkMultiRadioIPv4.mobileHost[10].wlan[0].mac 	numCollision 	13585
scalar NetworkMultiRadioIPv4.mobileHost[10].wlan[0].mac 	numGivenUp 	187
scalar NetworkMultiRadioIPv4.mobileHost[10].wlan[0].mac 	numAckSend 	850
scalar NetworkMultiRadioIPv4.mobileHost[10].wlan[0].mac 	numRetry 	3741
scalar NetworkMultiRadioIPv4.mobileHost[10].wlan[1].mgmt 	"packets received by queue" 	1487
scalar NetworkMultiRadioIPv4.mobileHost[10].wlan[1].mgmt 	"packets dropped by queue" 	0
scalar NetworkMultiRadioIPv4.mobileHost[10].wlan[1].mac 	"Mean Frame Length" 	222
scalar NetworkMultiRadioIPv4.mobileHost[10].wlan[1].mac 	"Frame Length stddev" 	0
scalar NetworkMultiRadioIPv4.mobileHost[10].wlan[1].mac 	"Sent Throughput" 	0.1162391438604
scalar NetworkMultiRadioIPv4.mobileHost[10].wlan[1].mac 	"CW medio" 	117.18871725991
scalar NetworkMultiRadioIPv4.mobileHost[10].wlan[1].mac 	"CW max" 	1021
scalar NetworkMultiRadioIPv4.mobileHost[10].wlan[1].mac 	"CW dev" 	188.54663333057
scalar NetworkMultiRadioIPv4.mobileHost[10].wlan[1].mac 	"Mean service time" 	0.021939579979221
scalar NetworkMultiRadioIPv4.mobileHost[10].wlan[1].mac 	numSent 	1309
scalar NetworkMultiRadioIPv4.mobileHost[10].wlan[1].mac 	numSentWithoutRetry 	450
scalar NetworkMultiRadioIPv4.mobileHost[10].wlan[1].mac 	numReceived 	385
scalar NetworkMultiRadioIPv4.mobileHost[10].wlan[1].mac 	numSelfReceived 	1487
scalar NetworkMultiRadioIPv4.mobileHost[10].wlan[1].mac 	numSentBroadcast 	-1
scalar NetworkMultiRadioIPv4.mobileHost[10].wlan[1].mac 	numReceivedBroadcast 	0
scalar NetworkMultiRadioIPv4.mobileHost[10].wlan[1].mac 	numReceivedOther 	12154
scalar NetworkMultiRadioIPv4.mobileHost[10].wlan[1].mac 	numCollision 	7674
scalar NetworkMultiRadioIPv4.mobileHost[10].wlan[1].mac 	numGivenUp 	178
scalar NetworkMultiRadioIPv4.mobileHost[10].wlan[1].mac 	numAckSend 	385
scalar NetworkMultiRadioIPv4.mobileHost[10].wlan[1].mac 	numRetry 	3263
scalar NetworkMultiRadioIPv4.mobileHost[10].wlan[2].mgmt 	"packets received by queue" 	108
scalar NetworkMultiRadioIPv4.mobileHost[10].wlan[2].mgmt 	"packets dropped by queue" 	0
scalar NetworkMultiRadioIPv4.mobileHost[10].wlan[2].mac 	"Mean Frame Length" 	222
scalar NetworkMultiRadioIPv4.mobileHost[10].wlan[2].mac 	"Frame Length stddev" 	0
scalar NetworkMultiRadioIPv4.mobileHost[10].wlan[2].mac 	"Sent Throughput" 	0.008968795668373
scalar NetworkMultiRadioIPv4.mobileHost[10].wlan[2].mac 	"CW medio" 	92.16935483871
scalar NetworkMultiRadioIPv4.mobileHost[10].wlan[2].mac 	"CW max" 	1012
scalar NetworkMultiRadioIPv4.mobileHost[10].wlan[2].mac 	"CW dev" 	163.70479117061
scalar NetworkMultiRadioIPv4.mobileHost[10].wlan[2].mac 	"Mean service time" 	0.005648847192297
[...]
scalar NetworkMultiRadioIPv4.mobileHost[33].wlan[0].mac 	"Mean Frame Length" 	222
scalar NetworkMultiRadioIPv4.mobileHost[33].wlan[0].mac 	"Frame Length stddev" 	0
scalar NetworkMultiRadioIPv4.mobileHost[33].wlan[0].mac 	"Sent Throughput" 	0.00026639987133781
scalar NetworkMultiRadioIPv4.mobileHost[33].wlan[0].mac 	"CW medio" 	157.2
scalar NetworkMultiRadioIPv4.mobileHost[33].wlan[0].mac 	"CW max" 	836
scalar NetworkMultiRadioIPv4.mobileHost[33].wlan[0].mac 	"CW dev" 	262.28135868016
scalar NetworkMultiRadioIPv4.mobileHost[33].wlan[0].mac 	"Mean service time" 	0.007292378577
scalar NetworkMultiRadioIPv4.mobileHost[33].wlan[0].mac 	numSent 	3
scalar NetworkMultiRadioIPv4.mobileHost[33].wlan[0].mac 	numSentWithoutRetry 	1
scalar NetworkMultiRadioIPv4.mobileHost[33].wlan[0].mac 	numReceived 	1109
scalar NetworkMultiRadioIPv4.mobileHost[33].wlan[0].mac 	numSelfReceived 	3
scalar NetworkMultiRadioIPv4.mobileHost[33].wlan[0].mac 	numSentBroadcast 	-1
scalar NetworkMultiRadioIPv4.mobileHost[33].wlan[0].mac 	numReceivedBroadcast 	0
scalar NetworkMultiRadioIPv4.mobileHost[33].wlan[0].mac 	numReceivedOther 	12139
scalar NetworkMultiRadioIPv4.mobileHost[33].wlan[0].mac 	numCollision 	11142
scalar NetworkMultiRadioIPv4.mobileHost[33].wlan[0].mac 	numGivenUp 	0
scalar NetworkMultiRadioIPv4.mobileHost[33].wlan[0].mac 	numAckSend 	1109
scalar NetworkMultiRadioIPv4.mobileHost[33].wlan[0].mac 	numRetry 	9
scalar NetworkMultiRadioIPv4.mobileHost[33].wlan[1].mgmt 	"packets received by queue" 	1814
scalar NetworkMultiRadioIPv4.mobileHost[33].wlan[1].mgmt 	"packets dropped by queue" 	0
scalar NetworkMultiRadioIPv4.mobileHost[33].wlan[1].mac 	"Mean Frame Length" 	222
scalar NetworkMultiRadioIPv4.mobileHost[33].wlan[1].mac 	"Frame Length stddev" 	0
scalar NetworkMultiRadioIPv4.mobileHost[33].wlan[1].mac 	"Sent Throughput" 	0.14838472833516
scalar NetworkMultiRadioIPv4.mobileHost[33].wlan[1].mac 	"CW medio" 	109.64029514245
scalar NetworkMultiRadioIPv4.mobileHost[33].wlan[1].mac 	"CW max" 	1022
scalar NetworkMultiRadioIPv4.mobileHost[33].wlan[1].mac 	"CW dev" 	184.38933249091
scalar NetworkMultiRadioIPv4.mobileHost[33].wlan[1].mac 	"Mean service time" 	0.01820518031691
scalar NetworkMultiRadioIPv4.mobileHost[33].wlan[1].mac 	numSent 	1671
scalar NetworkMultiRadioIPv4.mobileHost[33].wlan[1].mac 	numSentWithoutRetry 	636
scalar NetworkMultiRadioIPv4.mobileHost[33].wlan[1].mac 	numReceived 	111
scalar NetworkMultiRadioIPv4.mobileHost[33].wlan[1].mac 	numSelfReceived 	1814
scalar NetworkMultiRadioIPv4.mobileHost[33].wlan[1].mac 	numSentBroadcast 	-1
scalar NetworkMultiRadioIPv4.mobileHost[33].wlan[1].mac 	numReceivedBroadcast 	0
scalar NetworkMultiRadioIPv4.mobileHost[33].wlan[1].mac 	numReceivedOther 	10723
scalar NetworkMultiRadioIPv4.mobileHost[33].wlan[1].mac 	numCollision 	8700
scalar NetworkMultiRadioIPv4.mobileHost[33].wlan[1].mac 	numGivenUp 	142
scalar NetworkMultiRadioIPv4.mobileHost[33].wlan[1].mac 	numAckSend 	111
scalar NetworkMultiRadioIPv4.mobileHost[33].wlan[1].mac 	numRetry 	3425
scalar NetworkMultiRadioIPv4.mobileHost[33].wlan[2].mgmt 	"packets received by queue" 	0
scalar NetworkMultiRadioIPv4.mobileHost[33].wlan[2].mgmt 	"packets dropped by queue" 	0
scalar NetworkMultiRadioIPv4.mobileHost[33].wlan[2].mac 	"Mean Frame Length" 	0
scalar NetworkMultiRadioIPv4.mobileHost[33].wlan[2].mac 	"Frame Length stddev" 	nan
scalar NetworkMultiRadioIPv4.mobileHost[33].wlan[2].mac 	"Sent Throughput" 	0
scalar NetworkMultiRadioIPv4.mobileHost[33].wlan[2].mac 	"CW medio" 	0
scalar NetworkMultiRadioIPv4.mobileHost[33].wlan[2].mac 	"CW max" 	0
scalar NetworkMultiRadioIPv4.mobileHost[33].wlan[2].mac 	"CW dev" 	nan
scalar NetworkMultiRadioIPv4.mobileHost[33].wlan[2].mac 	"Mean service time" 	0
scalar NetworkMultiRadioIPv4.mobileHost[33].wlan[2].mac 	numSent 	0
scalar NetworkMultiRadioIPv4.mobileHost[33].wlan[2].mac 	numSentWithoutRetry 	0
scalar NetworkMultiRadioIPv4.mobileHost[33].wlan[2].mac 	numReceived 	241
scalar NetworkMultiRadioIPv4.mobileHost[33].wlan[2].mac 	numSelfReceived 	0
scalar NetworkMultiRadioIPv4.mobileHost[33].wlan[2].mac 	numSentBroadcast 	-1
scalar NetworkMultiRadioIPv4.mobileHost[33].wlan[2].mac 	numReceivedBroadcast 	0
scalar NetworkMultiRadioIPv4.mobileHost[33].wlan[2].mac 	numReceivedOther 	11490
scalar NetworkMultiRadioIPv4.mobileHost[33].wlan[2].mac 	numCollision 	8922
scalar NetworkMultiRadioIPv4.mobileHost[33].wlan[2].mac 	numGivenUp 	0
scalar NetworkMultiRadioIPv4.mobileHost[33].wlan[2].mac 	numAckSend 	241
scalar NetworkMultiRadioIPv4.mobileHost[33].wlan[2].mac 	numRetry 	0
scalar NetworkMultiRadioIPv4.mobileHost[33].manetRouting.manetmanager.manetroutingprotocol 	"Position X" 	450
scalar NetworkMultiRadioIPv4.mobileHost[33].manetRouting.manetmanager.manetroutingprotocol 	"Position Y" 	750
scalar NetworkMultiRadioIPv4.mobileHost[33].manetRouting.manetmanager.manetroutingprotocol 	lonelyCount 	0
scalar NetworkMultiRadioIPv4.mobileHost[33].manetRouting.manetmanager.manetroutingprotocol 	noNextHopCount 	0
scalar NetworkMultiRadioIPv4.mobileHost[33].manetRouting.manetmanager.manetroutingprotocol 	"Forwarding rate" 	0.5
scalar NetworkMultiRadioIPv4.mobileHost[33].manetRouting.manetmanager.manetroutingprotocol 	Load 	0.080957171658826
scalar NetworkMultiRadioIPv4.mobileHost[33].manetRouting.manetmanager.manetroutingprotocol 	"Interarrival time" 	0.01044846170278
scalar NetworkMultiRadioIPv4.mobileHost[34].udpApp[0] 	"Total send" 	928
scalar NetworkMultiRadioIPv4.mobileHost[34].udpApp[0] 	"Total received" 	318
scalar NetworkMultiRadioIPv4.mobileHost[34].udpApp[0] 	"Total deleted" 	949
scalar NetworkMultiRadioIPv4.mobileHost[34].udpApp[0] 	"Mean delay" 	0.15183229388159
scalar NetworkMultiRadioIPv4.mobileHost[34].udpApp[0] 	"Min delay" 	0.001544492741
scalar NetworkMultiRadioIPv4.mobileHost[34].udpApp[0] 	"Max delay" 	0.641184780547
scalar NetworkMultiRadioIPv4.mobileHost[34].udpApp[0] 	"Deviation delay" 	0.11710729940483
scalar NetworkMultiRadioIPv4.mobileHost[34].udpApp[0] 	"TTL28 NumOfBurstsReceived" 	2
scalar NetworkMultiRadioIPv4.mobileHost[34].udpApp[0] 	"TTL28 NumOfPacketsReceived" 	318
scalar NetworkMultiRadioIPv4.mobileHost[34].udpApp[1] 	"Total send" 	0
scalar NetworkMultiRadioIPv4.mobileHost[34].udpApp[1] 	"Total received" 	0
scalar NetworkMultiRadioIPv4.mobileHost[34].udpApp[1] 	"Total deleted" 	0
scalar NetworkMultiRadioIPv4.mobileHost[34].udpApp[1] 	"Mean delay" 	0
scalar NetworkMultiRadioIPv4.mobileHost[34].udpApp[1] 	"Min delay" 	0
scalar NetworkMultiRadioIPv4.mobileHost[34].udpApp[1] 	"Max delay" 	0
scalar NetworkMultiRadioIPv4.mobileHost[34].udpApp[1] 	"Deviation delay" 	nan
scalar NetworkMultiRadioIPv4.mobileHost[34].udpApp[2] 	"Total send" 	0
scalar NetworkMultiRadioIPv4.mobileHost[34].udpApp[2] 	"Total received" 	0
scalar NetworkMultiRadioIPv4.mobileHost[34].udpApp[2] 	"Total deleted" 	0
scalar NetworkMultiRadioIPv4.mobileHost[34].udpApp[2] 	"Mean delay" 	0
scalar NetworkMultiRadioIPv4.mobileHost[34].udpApp[2] 	"Min delay" 	0
scalar NetworkMultiRadioIPv4.mobileHost[34].udpApp[2] 	"Max delay" 	0
scalar NetworkMultiRadioIPv4.mobileHost[34].udpApp[2] 	"Deviation delay" 	nan
scalar NetworkMultiRadioIPv4.mobileHost[34].pingApp 	"Pings sent" 	0
scalar NetworkMultiRadioIPv4.mobileHost[34].wlan[0].mgmt 	"packets received by queue" 	928
scalar NetworkMultiRadioIPv4.mobileHost[34].wlan[0].mgmt 	"packets dropped by queue" 	0
scalar NetworkMultiRadioIPv4.mobileHost[34].wlan[0].mac 	"Mean Frame Length" 	222
scalar NetworkMultiRadioIPv4.mobileHost[34].wlan[0].mac 	"Frame Length stddev" 	0
scalar NetworkMultiRadioIPv4.mobileHost[34].wlan[0].mac 	"Sent Throughput" 	0.079031961830218
scalar NetworkMultiRadioIPv4.mobileHost[34].wlan[0].mac 	"CW medio" 	94.513737687921
scalar NetworkMultiRadioIPv4.mobileHost[34].wlan[0].mac 	"CW max" 	1022
scalar NetworkMultiRadioIPv4.mobileHost[34].wlan[0].mac 	"CW dev" 	164.04245270476
scalar NetworkMultiRadioIPv4.mobileHost[34].wlan[0].mac 	"Mean service time" 	0.0050762524788382
scalar NetworkMultiRadioIPv4.mobileHost[34].wlan[0].mac 	numSent 	890
scalar NetworkMultiRadioIPv4.mobileHost[34].wlan[0].mac 	numSentWithoutRetry 	341
scalar NetworkMultiRadioIPv4.mobileHost[34].wlan[0].mac 	numReceived 	272
scalar NetworkMultiRadioIPv4.mobileHost[34].wlan[0].mac 	numSelfReceived 	928
scalar NetworkMultiRadioIPv4.mobileHost[34].wlan[0].mac 	numSentBroadcast 	-1
scalar NetworkMultiRadioIPv4.mobileHost[34].wlan[0].mac 	numReceivedBroadcast 	0
scalar NetworkMultiRadioIPv4.mobileHost[34].wlan[0].mac 	numReceivedOther 	8984
scalar NetworkMultiRadioIPv4.mobileHost[34].wlan[0].mac 	numCollision 	8826
scalar NetworkMultiRadioIPv4.mobileHost[34].wlan[0].mac 	numGivenUp 	37
scalar NetworkMultiRadioIPv4.mobileHost[34].wlan[0].mac 	numAckSend 	272
scalar NetworkMultiRadioIPv4.mobileHost[34].wlan[0].mac 	numRetry 	1431
scalar NetworkMultiRadioIPv4.mobileHost[34].wlan[1].mgmt 	"packets received by queue" 	0
scalar NetworkMultiRadioIPv4.mobileHost[34].wlan[1].mgmt 	"packets dropped by queue" 	0
scalar NetworkMultiRadioIPv4.mobileHost[34].wlan[1].mac 	"Mean Frame Length" 	0
scalar NetworkMultiRadioIPv4.mobileHost[34].wlan[1].mac 	"Frame Length stddev" 	nan
scalar NetworkMultiRadioIPv4.mobileHost[34].wlan[1].mac 	"Sent Throughput" 	0
scalar NetworkMultiRadioIPv4.mobileHost[34].wlan[1].mac 	"CW medio" 	0
scalar NetworkMultiRadioIPv4.mobileHost[34].wlan[1].mac 	"CW max" 	0
scalar NetworkMultiRadioIPv4.mobileHost[34].wlan[1].mac 	"CW dev" 	nan
scalar NetworkMultiRadioIPv4.mobileHost[34].wlan[1].mac 	"Mean service time" 	0
scalar NetworkMultiRadioIPv4.mobileHost[34].wlan[1].mac 	numSent 	0
scalar NetworkMultiRadioIPv4.mobileHost[34].wlan[1].mac 	numSentWithoutRetry 	0
scalar NetworkMultiRadioIPv4.mobileHost[34].wlan[1].mac 	numReceived 	519
scalar NetworkMultiRadioIPv4.mobileHost[34].wlan[1].mac 	numSelfReceived 	0
scalar NetworkMultiRadioIPv4.mobileHost[34].wlan[1].mac 	numSentBroadcast 	-1
scalar NetworkMultiRadioIPv4.mobileHost[34].wlan[1].mac 	numReceivedBroadcast 	0
scalar NetworkMultiRadioIPv4.mobileHost[34].wlan[1].mac 	numReceivedOther 	8728
scalar NetworkMultiRadioIPv4.mobileHost[34].wlan[1].mac 	numCollision 	7771
scalar NetworkMultiRadioIPv4.mobileHost[34].wlan[1].mac 	numGivenUp 	0
scalar NetworkMultiRadioIPv4.mobileHost[34].wlan[1].mac 	numAckSend 	519
scalar NetworkMultiRadioIPv4.mobileHost[34].wlan[1].mac 	numRetry 	0
scalar NetworkMultiRadioIPv4.mobileHost[34].wlan[2].mgmt 	"packets received by queue" 	0
scalar NetworkMultiRadioIPv4.mobileHost[34].wlan[2].mgmt 	"packets dropped by queue" 	0
scalar NetworkMultiRadioIPv4.mobileHost[34].wlan[2].mac 	"Mean Frame Length" 	0
scalar NetworkMultiRadioIPv4.mobileHost[34].wlan[2].mac 	"Frame Length stddev" 	nan
scalar NetworkMultiRadioIPv4.mobileHost[34].wlan[2].mac 	"Sent Throughput" 	0
scalar NetworkMultiRadioIPv4.mobileHost[34].wlan[2].mac 	"CW medio" 	0
scalar NetworkMultiRadioIPv4.mobileHost[34].wlan[2].mac 	"CW max" 	0
scalar NetworkMultiRadioIPv4.mobileHost[34].wlan[2].mac 	"CW dev" 	nan
scalar NetworkMultiRadioIPv4.mobileHost[34].wlan[2].mac 	"Mean service time" 	0
scalar NetworkMultiRadioIPv4.mobileHost[34].wlan[2].mac 	numSent 	0
scalar NetworkMultiRadioIPv4.mobileHost[34].wlan[2].mac 	numSentWithoutRetry 	0
scalar NetworkMultiRadioIPv4.mobileHost[34].wlan[2].mac 	numReceived 	476
scalar NetworkMultiRadioIPv4.mobileHost[34].wlan[2].mac 	numSelfReceived 	0
scalar NetworkMultiRadioIPv4.mobileHost[34].wlan[2].mac 	numSentBroadcast 	-1
scalar NetworkMultiRadioIPv4.mobileHost[34].wlan[2].mac 	numReceivedBroadcast 	0
scalar NetworkMultiRadioIPv4.mobileHost[34].wlan[2].mac 	numReceivedOther 	8893
scalar NetworkMultiRadioIPv4.mobileHost[34].wlan[2].mac 	numCollision 	9029
scalar NetworkMultiRadioIPv4.mobileHost[34].wlan[2].mac 	numGivenUp 	0
scalar NetworkMultiRadioIPv4.mobileHost[34].wlan[2].mac 	numAckSend 	476
scalar NetworkMultiRadioIPv4.mobileHost[34].wlan[2].mac 	numRetry 	0
scalar NetworkMultiRadioIPv4.mobileHost[34].manetRouting.manetmanager.manetroutingprotocol 	"Position X" 	600
scalar NetworkMultiRadioIPv4.mobileHost[34].manetRouting.manetmanager.manetroutingprotocol 	"Position Y" 	750
scalar NetworkMultiRadioIPv4.mobileHost[34].manetRouting.manetmanager.manetroutingprotocol 	lonelyCount 	0
scalar NetworkMultiRadioIPv4.mobileHost[34].manetRouting.manetmanager.manetroutingprotocol 	noNextHopCount 	0
scalar NetworkMultiRadioIPv4.mobileHost[34].manetRouting.manetmanager.manetroutingprotocol 	"Forwarding rate" 	0
scalar NetworkMultiRadioIPv4.mobileHost[34].manetRouting.manetmanager.manetroutingprotocol 	Load 	0.055217691371062
scalar NetworkMultiRadioIPv4.mobileHost[34].manetRouting.manetmanager.manetroutingprotocol 	"Interarrival time" 	0.020473772920762
scalar NetworkMultiRadioIPv4.mobileHost[35].udpApp[0] 	"Total send" 	928
scalar NetworkMultiRadioIPv4.mobileHost[35].udpApp[0] 	"Total received" 	868
scalar NetworkMultiRadioIPv4.mobileHost[35].udpApp[0] 	"Total deleted" 	0
scalar NetworkMultiRadioIPv4.mobileHost[35].udpApp[0] 	"Mean delay" 	0.02828795575195
scalar NetworkMultiRadioIPv4.mobileHost[35].udpApp[0] 	"Min delay" 	0.000181
scalar NetworkMultiRadioIPv4.mobileHost[35].udpApp[0] 	"Max delay" 	0.129360301643
scalar NetworkMultiRadioIPv4.mobileHost[35].udpApp[0] 	"Deviation delay" 	0.025299779462655
scalar NetworkMultiRadioIPv4.mobileHost[35].udpApp[0] 	"TTL30 NumOfBurstsReceived" 	1
scalar NetworkMultiRadioIPv4.mobileHost[35].udpApp[0] 	"TTL30 NumOfPacketsReceived" 	868
scalar NetworkMultiRadioIPv4.mobileHost[35].udpApp[1] 	"Total send" 	0
scalar NetworkMultiRadioIPv4.mobileHost[35].udpApp[1] 	"Total received" 	0
scalar NetworkMultiRadioIPv4.mobileHost[35].udpApp[1] 	"Total deleted" 	0
scalar NetworkMultiRadioIPv4.mobileHost[35].udpApp[1] 	"Mean delay" 	0
scalar NetworkMultiRadioIPv4.mobileHost[35].udpApp[1] 	"Min delay" 	0
scalar NetworkMultiRadioIPv4.mobileHost[35].udpApp[1] 	"Max delay" 	0
scalar NetworkMultiRadioIPv4.mobileHost[35].udpApp[1] 	"Deviation delay" 	nan
scalar NetworkMultiRadioIPv4.mobileHost[35].udpApp[2] 	"Total send" 	930
scalar NetworkMultiRadioIPv4.mobileHost[35].udpApp[2] 	"Total received" 	0
scalar NetworkMultiRadioIPv4.mobileHost[35].udpApp[2] 	"Total deleted" 	0
scalar NetworkMultiRadioIPv4.mobileHost[35].udpApp[2] 	"Mean delay" 	0
scalar NetworkMultiRadioIPv4.mobileHost[35].udpApp[2] 	"Min delay" 	0
scalar NetworkMultiRadioIPv4.mobileHost[35].udpApp[2] 	"Max delay" 	0
scalar NetworkMultiRadioIPv4.mobileHost[35].udpApp[2] 	"Deviation delay" 	nan
scalar NetworkMultiRadioIPv4.mobileHost[35].pingApp 	"Pings sent" 	0
scalar NetworkMultiRadioIPv4.mobileHost[35].wlan[0].mgmt 	"packets received by queue" 	1844
scalar NetworkMultiRadioIPv4.mobileHost[35].wlan[0].mgmt 	"packets dropped by queue" 	0
scalar NetworkMultiRadioIPv4.mobileHost[35].wlan[0].mac 	"Mean Frame Length" 	222
scalar NetworkMultiRadioIPv4.mobileHost[35].wlan[0].mac 	"Frame Length stddev" 	0
scalar NetworkMultiRadioIPv4.mobileHost[35].wlan[0].mac 	"Sent Throughput" 	0.13293353579757
scalar NetworkMultiRadioIPv4.mobileHost[35].wlan[0].mac 	"CW medio" 	145.33081431215
scalar NetworkMultiRadioIPv4.mobileHost[35].wlan[0].mac 	"CW max" 	1023
scalar NetworkMultiRadioIPv4.mobileHost[35].wlan[0].mac 	"CW dev" 	216.14900489912
scalar NetworkMultiRadioIPv4.mobileHost[35].wlan[0].mac 	"Mean service time" 	0.020651062015124
scalar NetworkMultiRadioIPv4.mobileHost[35].wlan[0].mac 	numSent 	1497
scalar NetworkMultiRadioIPv4.mobileHost[35].wlan[0].mac 	numSentWithoutRetry 	394
scalar NetworkMultiRadioIPv4.mobileHost[35].wlan[0].mac 	numReceived 	1
scalar NetworkMultiRadioIPv4.mobileHost[35].wlan[0].mac 	numSelfReceived 	1844
scalar NetworkMultiRadioIPv4.mobileHost[35].wlan[0].mac 	numSentBroadcast 	-1
scalar NetworkMultiRadioIPv4.mobileHost[35].wlan[0].mac 	numReceivedBroadcast 	0
scalar NetworkMultiRadioIPv4.mobileHost[35].wlan[0].mac 	numReceivedOther 	2837
scalar NetworkMultiRadioIPv4.mobileHost[35].wlan[0].mac 	numCollision 	3509
scalar NetworkMultiRadioIPv4.mobileHost[35].wlan[0].mac 	numGivenUp 	346
scalar NetworkMultiRadioIPv4.mobileHost[35].wlan[0].mac 	numAckSend 	1
scalar NetworkMultiRadioIPv4.mobileHost[35].wlan[0].mac 	numRetry 	5156
scalar NetworkMultiRadioIPv4.mobileHost[35].wlan[1].mgmt 	"packets received by queue" 	0
scalar NetworkMultiRadioIPv4.mobileHost[35].wlan[1].mgmt 	"packets dropped by queue" 	0
scalar NetworkMultiRadioIPv4.mobileHost[35].wlan[1].mac 	"Mean Frame Length" 	0
scalar NetworkMultiRadioIPv4.mobileHost[35].wlan[1].mac 	"Frame Length stddev" 	nan
scalar NetworkMultiRadioIPv4.mobileHost[35].wlan[1].mac 	"Sent Throughput" 	0
scalar NetworkMultiRadioIPv4.mobileHost[35].wlan[1].mac 	"CW medio" 	0
scalar NetworkMultiRadioIPv4.mobileHost[35].wlan[1].mac 	"CW max" 	0
scalar NetworkMultiRadioIPv4.mobileHost[35].wlan[1].mac 	"CW dev" 	nan
scalar NetworkMultiRadioIPv4.mobileHost[35].wlan[1].mac 	"Mean service time" 	0
scalar NetworkMultiRadioIPv4.mobileHost[35].wlan[1].mac 	numSent 	0
scalar NetworkMultiRadioIPv4.mobileHost[35].wlan[1].mac 	numSentWithoutRetry 	0
scalar NetworkMultiRadioIPv4.mobileHost[35].wlan[1].mac 	numReceived 	0
scalar NetworkMultiRadioIPv4.mobileHost[35].wlan[1].mac 	numSelfReceived 	0
scalar NetworkMultiRadioIPv4.mobileHost[35].wlan[1].mac 	numSentBroadcast 	-1
scalar NetworkMultiRadioIPv4.mobileHost[35].wlan[1].mac 	numReceivedBroadcast 	0
scalar NetworkMultiRadioIPv4.mobileHost[35].wlan[1].mac 	numReceivedOther 	3950
scalar NetworkMultiRadioIPv4.mobileHost[35].wlan[1].mac 	numCollision 	3261
scalar NetworkMultiRadioIPv4.mobileHost[35].wlan[1].mac 	numGivenUp 	0
scalar NetworkMultiRadioIPv4.mobileHost[35].wlan[1].mac 	numAckSend 	0
scalar NetworkMultiRadioIPv4.mobileHost[35].wlan[1].mac 	numRetry 	0
scalar NetworkMultiRadioIPv4.mobileHost[35].wlan[2].mgmt 	"packets received by queue" 	0
scalar NetworkMultiRadioIPv4.mobileHost[35].wlan[2].mgmt 	"packets dropped by queue" 	0
scalar NetworkMultiRadioIPv4.mobileHost[35].wlan[2].mac 	"Mean Frame Length" 	0
scalar NetworkMultiRadioIPv4.mobileHost[35].wlan[2].mac 	"Frame Length stddev" 	nan
scalar NetworkMultiRadioIPv4.mobileHost[35].wlan[2].mac 	"Sent Throughput" 	0
scalar NetworkMultiRadioIPv4.mobileHost[35].wlan[2].mac 	"CW medio" 	0
scalar NetworkMultiRadioIPv4.mobileHost[35].wlan[2].mac 	"CW max" 	0
scalar NetworkMultiRadioIPv4.mobileHost[35].wlan[2].mac 	"CW dev" 	nan
scalar NetworkMultiRadioIPv4.mobileHost[35].wlan[2].mac 	"Mean service time" 	0
scalar NetworkMultiRadioIPv4.mobileHost[35].wlan[2].mac 	numSent 	0
scalar NetworkMultiRadioIPv4.mobileHost[35].wlan[2].mac 	numSentWithoutRetry 	0
scalar NetworkMultiRadioIPv4.mobileHost[35].wlan[2].mac 	numReceived 	867
scalar NetworkMultiRadioIPv4.mobileHost[35].wlan[2].mac 	numSelfReceived 	0
scalar NetworkMultiRadioIPv4.mobileHost[35].wlan[2].mac 	numSentBroadcast 	-1
scalar NetworkMultiRadioIPv4.mobileHost[35].wlan[2].mac 	numReceivedBroadcast 	0
scalar NetworkMultiRadioIPv4.mobileHost[35].wlan[2].mac 	numReceivedOther 	4528
scalar NetworkMultiRadioIPv4.mobileHost[35].wlan[2].mac 	numCollision 	6081
scalar NetworkMultiRadioIPv4.mobileHost[35].wlan[2].mac 	numGivenUp 	0
scalar NetworkMultiRadioIPv4.mobileHost[35].wlan[2].mac 	numAckSend 	867
scalar NetworkMultiRadioIPv4.mobileHost[35].wlan[2].mac 	numRetry 	0
scalar NetworkMultiRadioIPv4.mobileHost[35].manetRouting.manetmanager.manetroutingprotocol 	"Position X" 	750
scalar NetworkMultiRadioIPv4.mobileHost[35].manetRouting.manetmanager.manetroutingprotocol 	"Position Y" 	750
scalar NetworkMultiRadioIPv4.mobileHost[35].manetRouting.manetmanager.manetroutingprotocol 	lonelyCount 	0
scalar NetworkMultiRadioIPv4.mobileHost[35].manetRouting.manetmanager.manetroutingprotocol 	noNextHopCount 	0
scalar NetworkMultiRadioIPv4.mobileHost[35].manetRouting.manetmanager.manetroutingprotocol 	"Forwarding rate" 	0
scalar NetworkMultiRadioIPv4.mobileHost[35].manetRouting.manetmanager.manetroutingprotocol 	Load 	0.0028387464283657
scalar NetworkMultiRadioIPv4.mobileHost[35].manetRouting.manetmanager.manetroutingprotocol 	"Interarrival time" 	0.010302849128044
