version 2
run GTrndIfIndex36-10-20100531-16:59:19-20260
attr configname GTrndIfIndex36
attr datetime 20100531-16:59:19
attr experiment GTrndIfIndex36
attr inifile omnetpp.ini
attr iterationvars "$numudpapp=3, $sp=50, $msgfreq=0.02"
attr iterationvars2 "$numudpapp=3, $sp=50, $msgfreq=0.02, $repetition=4"
attr measurement "$numudpapp=3, $sp=50, $msgfreq=0.02"
attr msgfreq 0.02
attr network NetworkMultiRadioIPv4
attr numudpapp 3
attr processid 20260
attr repetition 4
attr replication #4
attr resultdir results
attr runnumber 10
attr seedset 10
attr sp 50

scalar . 	msgfreq 	0.02
scalar . 	numudpapp 	3
scalar . 	sp 	50
scalar NetworkMultiRadioIPv4.mobileHost[0].udpApp[0] 	"Total send" 	927
scalar NetworkMultiRadioIPv4.mobileHost[0].udpApp[0] 	"Total received" 	804
scalar NetworkMultiRadioIPv4.mobileHost[0].udpApp[0] 	"Total deleted" 	945
scalar NetworkMultiRadioIPv4.mobileHost[0].udpApp[0] 	"Mean delay" 	0.073586312040937
scalar NetworkMultiRadioIPv4.mobileHost[0].udpApp[0] 	"Min delay" 	0.000870725971
scalar NetworkMultiRadioIPv4.mobileHost[0].udpApp[0] 	"Max delay" 	0.338897285114
scalar NetworkMultiRadioIPv4.mobileHost[0].udpApp[0] 	"Deviation delay" 	0.052487133579533
scalar NetworkMultiRadioIPv4.mobileHost[0].udpApp[0] 	"TTL27 NumOfBurstsReceived" 	2
scalar NetworkMultiRadioIPv4.mobileHost[0].udpApp[0] 	"TTL27 NumOfPacketsReceived" 	609
scalar NetworkMultiRadioIPv4.mobileHost[0].udpApp[0] 	"TTL28 NumOfBurstsReceived" 	1
scalar NetworkMultiRadioIPv4.mobileHost[0].udpApp[0] 	"TTL28 NumOfPacketsReceived" 	195
scalar NetworkMultiRadioIPv4.mobileHost[0].udpApp[1] 	"Total send" 	0
scalar NetworkMultiRadioIPv4.mobileHost[0].udpApp[1] 	"Total received" 	0
scalar NetworkMultiRadioIPv4.mobileHost[0].udpApp[1] 	"Total deleted" 	0
scalar NetworkMultiRadioIPv4.mobileHost[0].udpApp[1] 	"Mean delay" 	0
scalar NetworkMultiRadioIPv4.mobileHost[0].udpApp[1] 	"Min delay" 	0
scalar NetworkMultiRadioIPv4.mobileHost[0].udpApp[1] 	"Max delay" 	0
scalar NetworkMultiRadioIPv4.mobileHost[0].udpApp[1] 	"Deviation delay" 	nan
scalar NetworkMultiRadioIPv4.mobileHost[0].udpApp[2] 	"Total send" 	0
scalar NetworkMultiRadioIPv4.mobileHost[0].udpApp[2] 	"Total received" 	0
scalar NetworkMultiRadioIPv4.mobileHost[0].udpApp[2] 	"Total deleted" 	0
scalar NetworkMultiRadioIPv4.mobileHost[0].udpApp[2] 	"Mean delay" 	0
scalar NetworkMultiRadioIPv4.mobileHost[0].udpApp[2] 	"Min delay" 	0
scalar NetworkMultiRadioIPv4.mobileHost[0].udpApp[2] 	"Max delay" 	0
scalar NetworkMultiRadioIPv4.mobileHost[0].udpApp[2] 	"Deviation delay" 	nan
scalar NetworkMultiRadioIPv4.mobileHost[0].pingApp 	"Pings sent" 	0
scalar NetworkMultiRadioIPv4.mobileHost[0].wlan[0].mgmt 	"packets received by queue" 	1
scalar NetworkMultiRadioIPv4.mobileHost[0].wlan[0].mgmt 	"packets dropped by queue" 	0
scalar NetworkMultiRadioIPv4.mobileHost[0].wlan[0].mac 	"Mean Frame Length" 	0
scalar NetworkMultiRadioIPv4.mobileHost[0].wlan[0].mac 	"Frame Length stddev" 	nan
scalar NetworkMultiRadioIPv4.mobileHost[0].wlan[0].mac 	"Sent Throughput" 	0
scalar NetworkMultiRadioIPv4.mobileHost[0].wlan[0].mac 	"CW medio" 	162.16666666667
scalar NetworkMultiRadioIPv4.mobileHost[0].wlan[0].mac 	"CW max" 	675
scalar NetworkMultiRadioIPv4.mobileHost[0].wlan[0].mac 	"CW dev" 	256.04172836994
scalar NetworkMultiRadioIPv4.mobileHost[0].wlan[0].mac 	"Mean service time" 	0
scalar NetworkMultiRadioIPv4.mobileHost[0].wlan[0].mac 	numSent 	0
scalar NetworkMultiRadioIPv4.mobileHost[0].wlan[0].mac 	numSentWithoutRetry 	0
scalar NetworkMultiRadioIPv4.mobileHost[0].wlan[0].mac 	numReceived 	18
scalar NetworkMultiRadioIPv4.mobileHost[0].wlan[0].mac 	numSelfReceived 	1
scalar NetworkMultiRadioIPv4.mobileHost[0].wlan[0].mac 	numSentBroadcast 	-1
scalar NetworkMultiRadioIPv4.mobileHost[0].wlan[0].mac 	numReceivedBroadcast 	0
scalar NetworkMultiRadioIPv4.mobileHost[0].wlan[0].mac 	numReceivedOther 	4161
scalar NetworkMultiRadioIPv4.mobileHost[0].wlan[0].mac 	numCollision 	1894
scalar NetworkMultiRadioIPv4.mobileHost[0].wlan[0].mac 	numGivenUp 	1
scalar NetworkMultiRadioIPv4.mobileHost[0].wlan[0].mac 	numAckSend 	18
scalar NetworkMultiRadioIPv4.mobileHost[0].wlan[0].mac 	numRetry 	6
scalar NetworkMultiRadioIPv4.mobileHost[0].wlan[1].mgmt 	"packets received by queue" 	923
scalar NetworkMultiRadioIPv4.mobileHost[0].wlan[1].mgmt 	"packets dropped by queue" 	0
scalar NetworkMultiRadioIPv4.mobileHost[0].wlan[1].mac 	"Mean Frame Length" 	222
scalar NetworkMultiRadioIPv4.mobileHost[0].wlan[1].mac 	"Frame Length stddev" 	0
scalar NetworkMultiRadioIPv4.mobileHost[0].wlan[1].mac 	"Sent Throughput" 	0.071039955491237
scalar NetworkMultiRadioIPv4.mobileHost[0].wlan[1].mac 	"CW medio" 	136.52418154762
scalar NetworkMultiRadioIPv4.mobileHost[0].wlan[1].mac 	"CW max" 	1022
scalar NetworkMultiRadioIPv4.mobileHost[0].wlan[1].mac 	"CW dev" 	206.96176572132
scalar NetworkMultiRadioIPv4.mobileHost[0].wlan[1].mac 	"Mean service time" 	0.0067778437004675
scalar NetworkMultiRadioIPv4.mobileHost[0].wlan[1].mac 	numSent 	800
scalar NetworkMultiRadioIPv4.mobileHost[0].wlan[1].mac 	numSentWithoutRetry 	236
scalar NetworkMultiRadioIPv4.mobileHost[0].wlan[1].mac 	numReceived 	893
scalar NetworkMultiRadioIPv4.mobileHost[0].wlan[1].mac 	numSelfReceived 	923
scalar NetworkMultiRadioIPv4.mobileHost[0].wlan[1].mac 	numSentBroadcast 	-1
scalar NetworkMultiRadioIPv4.mobileHost[0].wlan[1].mac 	numReceivedBroadcast 	0
scalar NetworkMultiRadioIPv4.mobileHost[0].wlan[1].mac 	numReceivedOther 	8078
scalar NetworkMultiRadioIPv4.mobileHost[0].wlan[1].mac 	numCollision 	6486
scalar NetworkMultiRadioIPv4.mobileHost[0].wlan[1].mac 	numGivenUp 	123
scalar NetworkMultiRadioIPv4.mobileHost[0].wlan[1].mac 	numAckSend 	893
scalar NetworkMultiRadioIPv4.mobileHost[0].wlan[1].mac 	numRetry 	2239
scalar NetworkMultiRadioIPv4.mobileHost[0].wlan[2].mgmt 	"packets received by queue" 	0
scalar NetworkMultiRadioIPv4.mobileHost[0].wlan[2].mgmt 	"packets dropped by queue" 	0
scalar NetworkMultiRadioIPv4.mobileHost[0].wlan[2].mac 	"Mean Frame Length" 	0
scalar NetworkMultiRadioIPv4.mobileHost[0].wlan[2].mac 	"Frame Length stddev" 	nan
scalar NetworkMultiRadioIPv4.mobileHost[0].wlan[2].mac 	"Sent Throughput" 	0
scalar NetworkMultiRadioIPv4.mobileHost[0].wlan[2].mac 	"CW medio" 	0
scalar NetworkMultiRadioIPv4.mobileHost[0].wlan[2].mac 	"CW max" 	0
scalar NetworkMultiRadioIPv4.mobileHost[0].wlan[2].mac 	"CW dev" 	nan
scalar NetworkMultiRadioIPv4.mobileHost[0].wlan[2].mac 	"Mean service time" 	0
scalar NetworkMultiRadioIPv4.mobileHost[0].wlan[2].mac 	numSent 	0
scalar NetworkMultiRadioIPv4.mobileHost[0].wlan[2].mac 	numSentWithoutRetry 	0
scalar NetworkMultiRadioIPv4.mobileHost[0].wlan[2].mac 	numReceived 	838
scalar NetworkMultiRadioIPv4.mobileHost[0].wlan[2].mac 	numSelfReceived 	0
scalar NetworkMultiRadioIPv4.mobileHost[0].wlan[2].mac 	numSentBroadcast 	-1
scalar NetworkMultiRadioIPv4.mobileHost[0].wlan[2].mac 	numReceivedBroadcast 	0
scalar NetworkMultiRadioIPv4.mobileHost[0].wlan[2].mac 	numReceivedOther 	7003
scalar NetworkMultiRadioIPv4.mobileHost[0].wlan[2].mac 	numCollision 	6388
scalar NetworkMultiRadioIPv4.mobileHost[0].wlan[2].mac 	numGivenUp 	0
scalar NetworkMultiRadioIPv4.mobileHost[0].wlan[2].mac 	numAckSend 	838
scalar NetworkMultiRadioIPv4.mobileHost[0].wlan[2].mac 	numRetry 	0
scalar NetworkMultiRadioIPv4.mobileHost[0].manetRouting.manetmanager.manetroutingprotocol 	"Position X" 	0
scalar NetworkMultiRadioIPv4.mobileHost[0].manetRouting.manetmanager.manetroutingprotocol 	"Position Y" 	0
scalar NetworkMultiRadioIPv4.mobileHost[0].manetRouting.manetmanager.manetroutingprotocol 	lonelyCount 	0
scalar NetworkMultiRadioIPv4.mobileHost[0].manetRouting.manetmanager.manetroutingprotocol 	noNextHopCount 	0
scalar NetworkMultiRadioIPv4.mobileHost[0].manetRouting.manetmanager.manetroutingprotocol 	"Forwarding rate" 	0
scalar NetworkMultiRadioIPv4.mobileHost[0].manetRouting.manetmanager.manetroutingprotocol 	Load 	0.30589266553866
scalar NetworkMultiRadioIPv4.mobileHost[0].manetRouting.manetmanager.manetroutingprotocol 	"Interarrival time" 	0.02054208585983
scalar NetworkMultiRadioIPv4.mobileHost[1].udpApp[0] 	"Total send" 	928
scalar NetworkMultiRadioIPv4.mobileHost[1].udpApp[0] 	"Total received" 	653
scalar NetworkMultiRadioIPv4.mobileHost[1].udpApp[0] 	"Total deleted" 	649
scalar NetworkMultiRadioIPv4.mobileHost[1].udpApp[0] 	"Mean delay" 	0.20848904020544
scalar NetworkMultiRadioIPv4.mobileHost[1].udpApp[0] 	"Min delay" 	9.0707106e-05
scalar NetworkMultiRadioIPv4.mobileHost[1].udpApp[0] 	"Max delay" 	1.375386782699
scalar NetworkMultiRadioIPv4.mobileHost[1].udpApp[0] 	"Deviation delay" 	0.36700652698583
scalar NetworkMultiRadioIPv4.mobileHost[1].udpApp[0] 	"TTL27 NumOfBurstsReceived" 	1
scalar NetworkMultiRadioIPv4.mobileHost[1].udpApp[0] 	"TTL27 NumOfPacketsReceived" 	171
scalar NetworkMultiRadioIPv4.mobileHost[1].udpApp[0] 	"TTL31 NumOfBurstsReceived" 	1
scalar NetworkMultiRadioIPv4.mobileHost[1].udpApp[0] 	"TTL31 NumOfPacketsReceived" 	482
scalar NetworkMultiRadioIPv4.mobileHost[1].udpApp[1] 	"Total send" 	927
scalar NetworkMultiRadioIPv4.mobileHost[1].udpApp[1] 	"Total received" 	0
scalar NetworkMultiRadioIPv4.mobileHost[1].udpApp[1] 	"Total deleted" 	0
scalar NetworkMultiRadioIPv4.mobileHost[1].udpApp[1] 	"Mean delay" 	0
scalar NetworkMultiRadioIPv4.mobileHost[1].udpApp[1] 	"Min delay" 	0
scalar NetworkMultiRadioIPv4.mobileHost[1].udpApp[1] 	"Max delay" 	0
scalar NetworkMultiRadioIPv4.mobileHost[1].udpApp[1] 	"Deviation delay" 	nan
scalar NetworkMultiRadioIPv4.mobileHost[1].udpApp[2] 	"Total send" 	927
scalar NetworkMultiRadioIPv4.mobileHost[1].udpApp[2] 	"Total received" 	0
scalar NetworkMultiRadioIPv4.mobileHost[1].udpApp[2] 	"Total deleted" 	0
scalar NetworkMultiRadioIPv4.mobileHost[1].udpApp[2] 	"Mean delay" 	0
scalar NetworkMultiRadioIPv4.mobileHost[1].udpApp[2] 	"Min delay" 	0
scalar NetworkMultiRadioIPv4.mobileHost[1].udpApp[2] 	"Max delay" 	0
scalar NetworkMultiRadioIPv4.mobileHost[1].udpApp[2] 	"Deviation delay" 	nan
scalar NetworkMultiRadioIPv4.mobileHost[1].pingApp 	"Pings sent" 	0
scalar NetworkMultiRadioIPv4.mobileHost[1].wlan[0].mgmt 	"packets received by queue" 	24
scalar NetworkMultiRadioIPv4.mobileHost[1].wlan[0].mgmt 	"packets dropped by queue" 	0
scalar NetworkMultiRadioIPv4.mobileHost[1].wlan[0].mac 	"Mean Frame Length" 	222
scalar NetworkMultiRadioIPv4.mobileHost[1].wlan[0].mac 	"Frame Length stddev" 	0
scalar NetworkMultiRadioIPv4.mobileHost[1].wlan[0].mac 	"Sent Throughput" 	0.001953598776009
scalar NetworkMultiRadioIPv4.mobileHost[1].wlan[0].mac 	"CW medio" 	124.10447761194
scalar NetworkMultiRadioIPv4.mobileHost[1].wlan[0].mac 	"CW max" 	1015
scalar NetworkMultiRadioIPv4.mobileHost[1].wlan[0].mac 	"CW dev" 	206.86828881934
scalar NetworkMultiRadioIPv4.mobileHost[1].wlan[0].mac 	"Mean service time" 	0.0065934706039091
scalar NetworkMultiRadioIPv4.mobileHost[1].wlan[0].mac 	numSent 	22
scalar NetworkMultiRadioIPv4.mobileHost[1].wlan[0].mac 	numSentWithoutRetry 	9
scalar NetworkMultiRadioIPv4.mobileHost[1].wlan[0].mac 	numReceived 	635
scalar NetworkMultiRadioIPv4.mobileHost[1].wlan[0].mac 	numSelfReceived 	24
scalar NetworkMultiRadioIPv4.mobileHost[1].wlan[0].mac 	numSentBroadcast 	-1
scalar NetworkMultiRadioIPv4.mobileHost[1].wlan[0].mac 	numReceivedBroadcast 	0
scalar NetworkMultiRadioIPv4.mobileHost[1].wlan[0].mac 	numReceivedOther 	7482
scalar NetworkMultiRadioIPv4.mobileHost[1].wlan[0].mac 	numCollision 	6811
scalar NetworkMultiRadioIPv4.mobileHost[1].wlan[0].mac 	numGivenUp 	2
scalar NetworkMultiRadioIPv4.mobileHost[1].wlan[0].mac 	numAckSend 	635
scalar NetworkMultiRadioIPv4.mobileHost[1].wlan[0].mac 	numRetry 	52
scalar NetworkMultiRadioIPv4.mobileHost[1].wlan[1].mgmt 	"packets received by queue" 	2270
scalar NetworkMultiRadioIPv4.mobileHost[1].wlan[1].mgmt 	"packets dropped by queue" 	0
scalar NetworkMultiRadioIPv4.mobileHost[1].wlan[1].mac 	"Mean Frame Length" 	222
scalar NetworkMultiRadioIPv4.mobileHost[1].wlan[1].mac 	"Frame Length stddev" 	0
scalar NetworkMultiRadioIPv4.mobileHost[1].wlan[1].mac 	"Sent Throughput" 	0.18958788121724
scalar NetworkMultiRadioIPv4.mobileHost[1].wlan[1].mac 	"CW medio" 	98.807137573964
scalar NetworkMultiRadioIPv4.mobileHost[1].wlan[1].mac 	"CW max" 	1018
scalar NetworkMultiRadioIPv4.mobileHost[1].wlan[1].mac 	"CW dev" 	170.80160546858
scalar NetworkMultiRadioIPv4.mobileHost[1].wlan[1].mac 	"Mean service time" 	0.0149960300535
scalar NetworkMultiRadioIPv4.mobileHost[1].wlan[1].mac 	numSent 	2135
scalar NetworkMultiRadioIPv4.mobileHost[1].wlan[1].mac 	numSentWithoutRetry 	901
scalar NetworkMultiRadioIPv4.mobileHost[1].wlan[1].mac 	numReceived 	987
scalar NetworkMultiRadioIPv4.mobileHost[1].wlan[1].mac 	numSelfReceived 	2270
scalar NetworkMultiRadioIPv4.mobileHost[1].wlan[1].mac 	numSentBroadcast 	-1
scalar NetworkMultiRadioIPv4.mobileHost[1].wlan[1].mac 	numReceivedBroadcast 	0
scalar NetworkMultiRadioIPv4.mobileHost[1].wlan[1].mac 	numReceivedOther 	9503
scalar NetworkMultiRadioIPv4.mobileHost[1].wlan[1].mac 	numCollision 	7239
scalar NetworkMultiRadioIPv4.mobileHost[1].wlan[1].mac 	numGivenUp 	134
scalar NetworkMultiRadioIPv4.mobileHost[1].wlan[1].mac 	numAckSend 	987
scalar NetworkMultiRadioIPv4.mobileHost[1].wlan[1].mac 	numRetry 	3673
scalar NetworkMultiRadioIPv4.mobileHost[1].wlan[2].mgmt 	"packets received by queue" 	1791
scalar NetworkMultiRadioIPv4.mobileHost[1].wlan[2].mgmt 	"packets dropped by queue" 	0
scalar NetworkMultiRadioIPv4.mobileHost[1].wlan[2].mac 	"Mean Frame Length" 	222
scalar NetworkMultiRadioIPv4.mobileHost[1].wlan[2].mac 	"Frame Length stddev" 	0
scalar NetworkMultiRadioIPv4.mobileHost[1].wlan[2].mac 	"Sent Throughput" 	0.14660870814504
scalar NetworkMultiRadioIPv4.mobileHost[1].wlan[2].mac 	"CW medio" 	108.61834061135
scalar NetworkMultiRadioIPv4.mobileHost[1].wlan[2].mac 	"CW max" 	1021
scalar NetworkMultiRadioIPv4.mobileHost[1].wlan[2].mac 	"CW dev" 	187.25875700366
scalar NetworkMultiRadioIPv4.mobileHost[1].wlan[2].mac 	"Mean service time" 	0.01472340092886
scalar NetworkMultiRadioIPv4.mobileHost[1].wlan[2].mac 	numSent 	1651
scalar NetworkMultiRadioIPv4.mobileHost[1].wlan[2].mac 	numSentWithoutRetry 	655
scalar NetworkMultiRadioIPv4.mobileHost[1].wlan[2].mac 	numReceived 	983
scalar NetworkMultiRadioIPv4.mobileHost[1].wlan[2].mac 	numSelfReceived 	1791
scalar NetworkMultiRadioIPv4.mobileHost[1].wlan[2].mac 	numSentBroadcast 	-1
scalar NetworkMultiRadioIPv4.mobileHost[1].wlan[2].mac 	numReceivedBroadcast 	0
scalar NetworkMultiRadioIPv4.mobileHost[1].wlan[2].mac 	numReceivedOther 	8036
scalar NetworkMultiRadioIPv4.mobileHost[1].wlan[2].mac 	numCollision 	7284
scalar NetworkMultiRadioIPv4.mobileHost[1].wlan[2].mac 	numGivenUp 	140
scalar NetworkMultiRadioIPv4.mobileHost[1].wlan[2].mac 	numAckSend 	983
scalar NetworkMultiRadioIPv4.mobileHost[1].wlan[2].mac 	numRetry 	3202
scalar NetworkMultiRadioIPv4.mobileHost[1].manetRouting.manetmanager.manetroutingprotocol 	"Position X" 	150
scalar NetworkMultiRadioIPv4.mobileHost[1].manetRouting.manetmanager.manetroutingprotocol 	"Position Y" 	0
scalar NetworkMultiRadioIPv4.mobileHost[1].manetRouting.manetmanager.manetroutingprotocol 	lonelyCount 	0
scalar NetworkMultiRadioIPv4.mobileHost[1].manetRouting.manetmanager.manetroutingprotocol 	noNextHopCount 	0
scalar NetworkMultiRadioIPv4.mobileHost[1].manetRouting.manetmanager.manetroutingprotocol 	"Forwarding rate" 	0.53759398496241
scalar NetworkMultiRadioIPv4.mobileHost[1].manetRouting.manetmanager.manetroutingprotocol 	Load 	0.75281965495018
scalar NetworkMultiRadioIPv4.mobileHost[1].manetRouting.manetmanager.manetroutingprotocol 	"Interarrival time" 	0.0046505169072042
scalar NetworkMultiRadioIPv4.mobileHost[2].udpApp[0] 	"Total send" 	0
scalar NetworkMultiRadioIPv4.mobileHost[2].udpApp[0] 	"Total received" 	152
scalar NetworkMultiRadioIPv4.mobileHost[2].udpApp[0] 	"Total deleted" 	514
scalar NetworkMultiRadioIPv4.mobileHost[2].udpApp[0] 	"Mean delay" 	0.13376174858478
scalar NetworkMultiRadioIPv4.mobileHost[2].udpApp[0] 	"Min delay" 	0.00251400419
scalar NetworkMultiRadioIPv4.mobileHost[2].udpApp[0] 	"Max delay" 	0.413899298072
scalar NetworkMultiRadioIPv4.mobileHost[2].udpApp[0] 	"Deviation delay" 	0.082510553854755
scalar NetworkMultiRadioIPv4.mobileHost[2].udpApp[0] 	"TTL28 NumOfBurstsReceived" 	1
scalar NetworkMultiRadioIPv4.mobileHost[2].udpApp[0] 	"TTL28 NumOfPacketsReceived" 	152
scalar NetworkMultiRadioIPv4.mobileHost[2].udpApp[1] 	"Total send" 	929
scalar NetworkMultiRadioIPv4.mobileHost[2].udpApp[1] 	"Total received" 	0
scalar NetworkMultiRadioIPv4.mobileHost[2].udpApp[1] 	"Total deleted" 	0
scalar NetworkMultiRadioIPv4.mobileHost[2].udpApp[1] 	"Mean delay" 	0
scalar NetworkMultiRadioIPv4.mobileHost[2].udpApp[1] 	"Min delay" 	0
scalar NetworkMultiRadioIPv4.mobileHost[2].udpApp[1] 	"Max delay" 	0
scalar NetworkMultiRadioIPv4.mobileHost[2].udpApp[1] 	"Deviation delay" 	nan
scalar NetworkMultiRadioIPv4.mobileHost[2].udpApp[2] 	"Total send" 	0
scalar NetworkMultiRadioIPv4.mobileHost[2].udpApp[2] 	"Total received" 	0
scalar NetworkMultiRadioIPv4.mobileHost[2].udpApp[2] 	"Total deleted" 	0
scalar NetworkMultiRadioIPv4.mobileHost[2].udpApp[2] 	"Mean delay" 	0
scalar NetworkMultiRadioIPv4.mobileHost[2].udpApp[2] 	"Min delay" 	0
scalar NetworkMultiRadioIPv4.mobileHost[2].udpApp[2] 	"Max delay" 	0
scalar NetworkMultiRadioIPv4.mobileHost[2].udpApp[2] 	"Deviation delay" 	nan
scalar NetworkMultiRadioIPv4.mobileHost[2].pingApp 	"Pings sent" 	0
scalar NetworkMultiRadioIPv4.mobileHost[2].wlan[0].mgmt 	"packets received by queue" 	1305
scalar NetworkMultiRadioIPv4.mobileHost[2].wlan[0].mgmt 	"packets dropped by queue" 	0
scalar NetworkMultiRadioIPv4.mobileHost[2].wlan[0].mac 	"Mean Frame Length" 	222
scalar NetworkMultiRadioIPv4.mobileHost[2].wlan[0].mac 	"Frame Length stddev" 	0
scalar NetworkMultiRadioIPv4.mobileHost[2].wlan[0].mac 	"Sent Throughput" 	0.10593833362631
scalar NetworkMultiRadioIPv4.mobileHost[2].wlan[0].mac 	"CW medio" 	110.8288876277
scalar NetworkMultiRadioIPv4.mobileHost[2].wlan[0].mac 	"CW max" 	1016
scalar NetworkMultiRadioIPv4.mobileHost[2].wlan[0].mac 	"CW dev" 	184.49131437735
scalar NetworkMultiRadioIPv4.mobileHost[2].wlan[0].mac 	"Mean service time" 	0.01519708887421
scalar NetworkMultiRadioIPv4.mobileHost[2].wlan[0].mac 	numSent 	1193
scalar NetworkMultiRadioIPv4.mobileHost[2].wlan[0].mac 	numSentWithoutRetry 	446
scalar NetworkMultiRadioIPv4.mobileHost[2].wlan[0].mac 	numReceived 	591
scalar NetworkMultiRadioIPv4.mobileHost[2].wlan[0].mac 	numSelfReceived 	1305
scalar NetworkMultiRadioIPv4.mobileHost[2].wlan[0].mac 	numSentBroadcast 	-1
scalar NetworkMultiRadioIPv4.mobileHost[2].wlan[0].mac 	numReceivedBroadcast 	0
scalar NetworkMultiRadioIPv4.mobileHost[2].wlan[0].mac 	numReceivedOther 	8960
scalar NetworkMultiRadioIPv4.mobileHost[2].wlan[0].mac 	numCollision 	9240
scalar NetworkMultiRadioIPv4.mobileHost[2].wlan[0].mac 	numGivenUp 	111
scalar NetworkMultiRadioIPv4.mobileHost[2].wlan[0].mac 	numAckSend 	591
scalar NetworkMultiRadioIPv4.mobileHost[2].wlan[0].mac 	numRetry 	2497
scalar NetworkMultiRadioIPv4.mobileHost[2].wlan[1].mgmt 	"packets received by queue" 	337
scalar NetworkMultiRadioIPv4.mobileHost[2].wlan[1].mgmt 	"packets dropped by queue" 	0
scalar NetworkMultiRadioIPv4.mobileHost[2].wlan[1].mac 	"Mean Frame Length" 	222
scalar NetworkMultiRadioIPv4.mobileHost[2].wlan[1].mac 	"Frame Length stddev" 	0
scalar NetworkMultiRadioIPv4.mobileHost[2].wlan[1].mac 	"Sent Throughput" 	0.028682382029587
scalar NetworkMultiRadioIPv4.mobileHost[2].wlan[1].mac 	"CW medio" 	88.677464788732
scalar NetworkMultiRadioIPv4.mobileHost[2].wlan[1].mac 	"CW max" 	992
scalar NetworkMultiRadioIPv4.mobileHost[2].wlan[1].mac 	"CW dev" 	167.29461499986
scalar NetworkMultiRadioIPv4.mobileHost[2].wlan[1].mac 	"Mean service time" 	0.004196386876839
scalar NetworkMultiRadioIPv4.mobileHost[2].wlan[1].mac 	numSent 	323
scalar NetworkMultiRadioIPv4.mobileHost[2].wlan[1].mac 	numSentWithoutRetry 	135
scalar NetworkMultiRadioIPv4.mobileHost[2].wlan[1].mac 	numReceived 	1194
scalar NetworkMultiRadioIPv4.mobileHost[2].wlan[1].mac 	numSelfReceived 	337
scalar NetworkMultiRadioIPv4.mobileHost[2].wlan[1].mac 	numSentBroadcast 	-1
scalar NetworkMultiRadioIPv4.mobileHost[2].wlan[1].mac 	numReceivedBroadcast 	0
scalar NetworkMultiRadioIPv4.mobileHost[2].wlan[1].mac 	numReceivedOther 	13866
scalar NetworkMultiRadioIPv4.mobileHost[2].wlan[1].mac 	numCollision 	9916
scalar NetworkMultiRadioIPv4.mobileHost[2].wlan[1].mac 	numGivenUp 	14
scalar NetworkMultiRadioIPv4.mobileHost[2].wlan[1].mac 	numAckSend 	1194
scalar NetworkMultiRadioIPv4.mobileHost[2].wlan[1].mac 	numRetry 	473
scalar NetworkMultiRadioIPv4.mobileHost[2].wlan[2].mgmt 	"packets received by queue" 	1401
scalar NetworkMultiRadioIPv4.mobileHost[2].wlan[2].mgmt 	"packets dropped by queue" 	0
scalar NetworkMultiRadioIPv4.mobileHost[2].wlan[2].mac 	"Mean Frame Length" 	222
scalar NetworkMultiRadioIPv4.mobileHost[2].wlan[2].mac 	"Frame Length stddev" 	0
scalar NetworkMultiRadioIPv4.mobileHost[2].wlan[2].mac 	"Sent Throughput" 	0.11686072678309
scalar NetworkMultiRadioIPv4.mobileHost[2].wlan[2].mac 	"CW medio" 	102.98794117647
scalar NetworkMultiRadioIPv4.mobileHost[2].wlan[2].mac 	"CW max" 	1023
scalar NetworkMultiRadioIPv4.mobileHost[2].wlan[2].mac 	"CW dev" 	180.01650287657
scalar NetworkMultiRadioIPv4.mobileHost[2].wlan[2].mac 	"Mean service time" 	0.011846936634961
scalar NetworkMultiRadioIPv4.mobileHost[2].wlan[2].mac 	numSent 	1316
scalar NetworkMultiRadioIPv4.mobileHost[2].wlan[2].mac 	numSentWithoutRetry 	535
scalar NetworkMultiRadioIPv4.mobileHost[2].wlan[2].mac 	numReceived 	1014
scalar NetworkMultiRadioIPv4.mobileHost[2].wlan[2].mac 	numSelfReceived 	1401
scalar NetworkMultiRadioIPv4.mobileHost[2].wlan[2].mac 	numSentBroadcast 	-1
scalar NetworkMultiRadioIPv4.mobileHost[2].wlan[2].mac 	numReceivedBroadcast 	0
scalar NetworkMultiRadioIPv4.mobileHost[2].wlan[2].mac 	numReceivedOther 	10502
scalar NetworkMultiRadioIPv4.mobileHost[2].wlan[2].mac 	numCollision 	9371
scalar NetworkMultiRadioIPv4.mobileHost[2].wlan[2].mac 	numGivenUp 	85
scalar NetworkMultiRadioIPv4.mobileHost[2].wlan[2].mac 	numAckSend 	1014
scalar NetworkMultiRadioIPv4.mobileHost[2].wlan[2].mac 	numRetry 	2297
scalar NetworkMultiRadioIPv4.mobileHost[2].manetRouting.manetmanager.manetroutingprotocol 	"Position X" 	300
scalar NetworkMultiRadioIPv4.mobileHost[2].manetRouting.manetmanager.manetroutingprotocol 	"Position Y" 	0
scalar NetworkMultiRadioIPv4.mobileHost[2].manetRouting.manetmanager.manetroutingprotocol 	lonelyCount 	0
scalar NetworkMultiRadioIPv4.mobileHost[2].manetRouting.manetmanager.manetroutingprotocol 	noNextHopCount 	0
scalar NetworkMultiRadioIPv4.mobileHost[2].manetRouting.manetmanager.manetroutingprotocol 	"Forwarding rate" 	0.86340852130326
scalar NetworkMultiRadioIPv4.mobileHost[2].manetRouting.manetmanager.manetroutingprotocol 	Load 	0.65460109754687
scalar NetworkMultiRadioIPv4.mobileHost[2].manetRouting.manetmanager.manetroutingprotocol 	"Interarrival time" 	0.0062407544372205
scalar NetworkMultiRadioIPv4.mobileHost[3].udpApp[0] 	"Total send" 	927
scalar NetworkMultiRadioIPv4.mobileHost[3].udpApp[0] 	"Total received" 	0
scalar NetworkMultiRadioIPv4.mobileHost[3].udpApp[0] 	"Total deleted" 	0
scalar NetworkMultiRadioIPv4.mobileHost[3].udpApp[0] 	"Mean delay" 	0
scalar NetworkMultiRadioIPv4.mobileHost[3].udpApp[0] 	"Min delay" 	0
scalar NetworkMultiRadioIPv4.mobileHost[3].udpApp[0] 	"Max delay" 	0
scalar NetworkMultiRadioIPv4.mobileHost[3].udpApp[0] 	"Deviation delay" 	nan
scalar NetworkMultiRadioIPv4.mobileHost[3].udpApp[1] 	"Total send" 	929
scalar NetworkMultiRadioIPv4.mobileHost[3].udpApp[1] 	"Total received" 	0
scalar NetworkMultiRadioIPv4.mobileHost[3].udpApp[1] 	"Total deleted" 	0
scalar NetworkMultiRadioIPv4.mobileHost[3].udpApp[1] 	"Mean delay" 	0
scalar NetworkMultiRadioIPv4.mobileHost[3].udpApp[1] 	"Min delay" 	0
scalar NetworkMultiRadioIPv4.mobileHost[3].udpApp[1] 	"Max delay" 	0
scalar NetworkMultiRadioIPv4.mobileHost[3].udpApp[1] 	"Deviation delay" 	nan
scalar NetworkMultiRadioIPv4.mobileHost[3].udpApp[2] 	"Total send" 	0
scalar NetworkMultiRadioIPv4.mobileHost[3].udpApp[2] 	"Total received" 	0
scalar NetworkMultiRadioIPv4.mobileHost[3].udpApp[2] 	"Total deleted" 	0
scalar NetworkMultiRadioIPv4.mobileHost[3].udpApp[2] 	"Mean delay" 	0
scalar NetworkMultiRadioIPv4.mobileHost[3].udpApp[2] 	"Min delay" 	0
scalar NetworkMultiRadioIPv4.mobileHost[3].udpApp[2] 	"Max delay" 	0
scalar NetworkMultiRadioIPv4.mobileHost[3].udpApp[2] 	"Deviation delay" 	nan
scalar NetworkMultiRadioIPv4.mobileHost[3].pingApp 	"Pings sent" 	0
scalar NetworkMultiRadioIPv4.mobileHost[3].wlan[0].mgmt 	"packets received by queue" 	1858
scalar NetworkMultiRadioIPv4.mobileHost[3].wlan[0].mgmt 	"packets dropped by queue" 	0
scalar NetworkMultiRadioIPv4.mobileHost[3].wlan[0].mac 	"Mean Frame Length" 	222
scalar NetworkMultiRadioIPv4.mobileHost[3].wlan[0].mac 	"Frame Length stddev" 	0
scalar NetworkMultiRadioIPv4.mobileHost[3].wlan[0].mac 	"Sent Throughput" 	0.15602150224763
scalar NetworkMultiRadioIPv4.mobileHost[3].wlan[0].mac 	"CW medio" 	95.293680297398
scalar NetworkMultiRadioIPv4.mobileHost[3].wlan[0].mac 	"CW max" 	1018
scalar NetworkMultiRadioIPv4.mobileHost[3].wlan[0].mac 	"CW dev" 	168.22428095372
scalar NetworkMultiRadioIPv4.mobileHost[3].wlan[0].mac 	"Mean service time" 	0.016184665380339
scalar NetworkMultiRadioIPv4.mobileHost[3].wlan[0].mac 	numSent 	1757
scalar NetworkMultiRadioIPv4.mobileHost[3].wlan[0].mac 	numSentWithoutRetry 	723
scalar NetworkMultiRadioIPv4.mobileHost[3].wlan[0].mac 	numReceived 	868
scalar NetworkMultiRadioIPv4.mobileHost[3].wlan[0].mac 	numSelfReceived 	1858
scalar NetworkMultiRadioIPv4.mobileHost[3].wlan[0].mac 	numSentBroadcast 	-1
scalar NetworkMultiRadioIPv4.mobileHost[3].wlan[0].mac 	numReceivedBroadcast 	0
scalar NetworkMultiRadioIPv4.mobileHost[3].wlan[0].mac 	numReceivedOther 	8196
scalar NetworkMultiRadioIPv4.mobileHost[3].wlan[0].mac 	numCollision 	9406
scalar NetworkMultiRadioIPv4.mobileHost[3].wlan[0].mac 	numGivenUp 	101
scalar NetworkMultiRadioIPv4.mobileHost[3].wlan[0].mac 	numAckSend 	868
scalar NetworkMultiRadioIPv4.mobileHost[3].wlan[0].mac 	numRetry 	3028
scalar NetworkMultiRadioIPv4.mobileHost[3].wlan[1].mgmt 	"packets received by queue" 	1633
scalar NetworkMultiRadioIPv4.mobileHost[3].wlan[1].mgmt 	"packets dropped by queue" 	0
scalar NetworkMultiRadioIPv4.mobileHost[3].wlan[1].mac 	"Mean Frame Length" 	222
scalar NetworkMultiRadioIPv4.mobileHost[3].wlan[1].mac 	"Frame Length stddev" 	0
scalar NetworkMultiRadioIPv4.mobileHost[3].wlan[1].mac 	"Sent Throughput" 	0.13870551309664
scalar NetworkMultiRadioIPv4.mobileHost[3].wlan[1].mac 	"CW medio" 	93.494827586207
scalar NetworkMultiRadioIPv4.mobileHost[3].wlan[1].mac 	"CW max" 	1022
scalar NetworkMultiRadioIPv4.mobileHost[3].wlan[1].mac 	"CW dev" 	162.09942504746
scalar NetworkMultiRadioIPv4.mobileHost[3].wlan[1].mac 	"Mean service time" 	0.0086827500856037
scalar NetworkMultiRadioIPv4.mobileHost[3].wlan[1].mac 	numSent 	1562
scalar NetworkMultiRadioIPv4.mobileHost[3].wlan[1].mac 	numSentWithoutRetry 	711
scalar NetworkMultiRadioIPv4.mobileHost[3].wlan[1].mac 	numReceived 	425
scalar NetworkMultiRadioIPv4.mobileHost[3].wlan[1].mac 	numSelfReceived 	1633
scalar NetworkMultiRadioIPv4.mobileHost[3].wlan[1].mac 	numSentBroadcast 	-1
scalar NetworkMultiRadioIPv4.mobileHost[3].wlan[1].mac 	numReceivedBroadcast 	0
scalar NetworkMultiRadioIPv4.mobileHost[3].wlan[1].mac 	numReceivedOther 	10577
scalar NetworkMultiRadioIPv4.mobileHost[3].wlan[1].mac 	numCollision 	7182
scalar NetworkMultiRadioIPv4.mobileHost[3].wlan[1].mac 	numGivenUp 	70
scalar NetworkMultiRadioIPv4.mobileHost[3].wlan[1].mac 	numAckSend 	425
scalar NetworkMultiRadioIPv4.mobileHost[3].wlan[1].mac 	numRetry 	2332
scalar NetworkMultiRadioIPv4.mobileHost[3].wlan[2].mgmt 	"packets received by queue" 	618
scalar NetworkMultiRadioIPv4.mobileHost[3].wlan[2].mgmt 	"packets dropped by queue" 	0
scalar NetworkMultiRadioIPv4.mobileHost[3].wlan[2].mac 	"Mean Frame Length" 	222
scalar NetworkMultiRadioIPv4.mobileHost[3].wlan[2].mac 	"Frame Length stddev" 	0
scalar NetworkMultiRadioIPv4.mobileHost[3].wlan[2].mac 	"Sent Throughput" 	0.051770367564239
scalar NetworkMultiRadioIPv4.mobileHost[3].wlan[2].mac 	"CW medio" 	101.96510816469
scalar NetworkMultiRadioIPv4.mobileHost[3].wlan[2].mac 	"CW max" 	1011
scalar NetworkMultiRadioIPv4.mobileHost[3].wlan[2].mac 	"CW dev" 	173.1420612177
scalar NetworkMultiRadioIPv4.mobileHost[3].wlan[2].mac 	"Mean service time" 	0.0051905250326158
scalar NetworkMultiRadioIPv4.mobileHost[3].wlan[2].mac 	numSent 	583
scalar NetworkMultiRadioIPv4.mobileHost[3].wlan[2].mac 	numSentWithoutRetry 	239
scalar NetworkMultiRadioIPv4.mobileHost[3].wlan[2].mac 	numReceived 	960
scalar NetworkMultiRadioIPv4.mobileHost[3].wlan[2].mac 	numSelfReceived 	618
scalar NetworkMultiRadioIPv4.mobileHost[3].wlan[2].mac 	numSentBroadcast 	-1
scalar NetworkMultiRadioIPv4.mobileHost[3].wlan[2].mac 	numReceivedBroadcast 	0
scalar NetworkMultiRadioIPv4.mobileHost[3].wlan[2].mac 	numReceivedOther 	9025
scalar NetworkMultiRadioIPv4.mobileHost[3].wlan[2].mac 	numCollision 	7593
scalar NetworkMultiRadioIPv4.mobileHost[3].wlan[2].mac 	numGivenUp 	35
scalar NetworkMultiRadioIPv4.mobileHost[3].wlan[2].mac 	numAckSend 	960
scalar NetworkMultiRadioIPv4.mobileHost[3].wlan[2].mac 	numRetry 	1022
scalar NetworkMultiRadioIPv4.mobileHost[3].manetRouting.manetmanager.manetroutingprotocol 	"Position X" 	450
scalar NetworkMultiRadioIPv4.mobileHost[3].manetRouting.manetmanager.manetroutingprotocol 	"Position Y" 	0
scalar NetworkMultiRadioIPv4.mobileHost[3].manetRouting.manetmanager.manetroutingprotocol 	lonelyCount 	0
scalar NetworkMultiRadioIPv4.mobileHost[3].manetRouting.manetmanager.manetroutingprotocol 	noNextHopCount 	0
scalar NetworkMultiRadioIPv4.mobileHost[3].manetRouting.manetmanager.manetroutingprotocol 	"Forwarding rate" 	0.80631313131313
scalar NetworkMultiRadioIPv4.mobileHost[3].manetRouting.manetmanager.manetroutingprotocol 	Load 	0.78256504291208
scalar NetworkMultiRadioIPv4.mobileHost[3].manetRouting.manetmanager.manetroutingprotocol 	"Interarrival time" 	0.0046226085094495
scalar NetworkMultiRadioIPv4.mobileHost[4].udpApp[0] 	"Total send" 	0
scalar NetworkMultiRadioIPv4.mobileHost[4].udpApp[0] 	"Total received" 	1243
scalar NetworkMultiRadioIPv4.mobileHost[4].udpApp[0] 	"Total deleted" 	1384
scalar NetworkMultiRadioIPv4.mobileHost[4].udpApp[0] 	"Mean delay" 	0.060664107138504
scalar NetworkMultiRadioIPv4.mobileHost[4].udpApp[0] 	"Min delay" 	0.000555707106
scalar NetworkMultiRadioIPv4.mobileHost[4].udpApp[0] 	"Max delay" 	0.862514142005
scalar NetworkMultiRadioIPv4.mobileHost[4].udpApp[0] 	"Deviation delay" 	0.087152244487726
scalar NetworkMultiRadioIPv4.mobileHost[4].udpApp[0] 	"TTL28 NumOfBurstsReceived" 	1
scalar NetworkMultiRadioIPv4.mobileHost[4].udpApp[0] 	"TTL28 NumOfPacketsReceived" 	113
scalar NetworkMultiRadioIPv4.mobileHost[4].udpApp[0] 	"TTL29 NumOfBurstsReceived" 	3
scalar NetworkMultiRadioIPv4.mobileHost[4].udpApp[0] 	"TTL29 NumOfPacketsReceived" 	1130
scalar NetworkMultiRadioIPv4.mobileHost[4].udpApp[1] 	"Total send" 	927
scalar NetworkMultiRadioIPv4.mobileHost[4].udpApp[1] 	"Total received" 	0
scalar NetworkMultiRadioIPv4.mobileHost[4].udpApp[1] 	"Total deleted" 	0
scalar NetworkMultiRadioIPv4.mobileHost[4].udpApp[1] 	"Mean delay" 	0
scalar NetworkMultiRadioIPv4.mobileHost[4].udpApp[1] 	"Min delay" 	0
scalar NetworkMultiRadioIPv4.mobileHost[4].udpApp[1] 	"Max delay" 	0
scalar NetworkMultiRadioIPv4.mobileHost[4].udpApp[1] 	"Deviation delay" 	nan
scalar NetworkMultiRadioIPv4.mobileHost[4].udpApp[2] 	"Total send" 	0
scalar NetworkMultiRadioIPv4.mobileHost[4].udpApp[2] 	"Total received" 	0
scalar NetworkMultiRadioIPv4.mobileHost[4].udpApp[2] 	"Total deleted" 	0
scalar NetworkMultiRadioIPv4.mobileHost[4].udpApp[2] 	"Mean delay" 	0
scalar NetworkMultiRadioIPv4.mobileHost[4].udpApp[2] 	"Min delay" 	0
scalar NetworkMultiRadioIPv4.mobileHost[4].udpApp[2] 	"Max delay" 	0
scalar NetworkMultiRadioIPv4.mobileHost[4].udpApp[2] 	"Deviation delay" 	nan
scalar NetworkMultiRadioIPv4.mobileHost[4].pingApp 	"Pings sent" 	0
scalar NetworkMultiRadioIPv4.mobileHost[4].wlan[0].mgmt 	"packets received by queue" 	3
scalar NetworkMultiRadioIPv4.mobileHost[4].wlan[0].mgmt 	"packets dropped by queue" 	0
scalar NetworkMultiRadioIPv4.mobileHost[4].wlan[0].mac 	"Mean Frame Length" 	222
scalar NetworkMultiRadioIPv4.mobileHost[4].wlan[0].mac 	"Frame Length stddev" 	0
scalar NetworkMultiRadioIPv4.mobileHost[4].wlan[0].mac 	"Sent Throughput" 	0.00026639983309214
scalar NetworkMultiRadioIPv4.mobileHost[4].wlan[0].mac 	"CW medio" 	56.4
scalar NetworkMultiRadioIPv4.mobileHost[4].wlan[0].mac 	"CW max" 	188
scalar NetworkMultiRadioIPv4.mobileHost[4].wlan[0].mac 	"CW dev" 	77.325933554015
scalar NetworkMultiRadioIPv4.mobileHost[4].wlan[0].mac 	"Mean service time" 	0.0044856055733333
scalar NetworkMultiRadioIPv4.mobileHost[4].wlan[0].mac 	numSent 	3
scalar NetworkMultiRadioIPv4.mobileHost[4].wlan[0].mac 	numSentWithoutRetry 	2
scalar NetworkMultiRadioIPv4.mobileHost[4].wlan[0].mac 	numReceived 	1466
scalar NetworkMultiRadioIPv4.mobileHost[4].wlan[0].mac 	numSelfReceived 	3
scalar NetworkMultiRadioIPv4.mobileHost[4].wlan[0].mac 	numSentBroadcast 	-1
scalar NetworkMultiRadioIPv4.mobileHost[4].wlan[0].mac 	numReceivedBroadcast 	0
scalar NetworkMultiRadioIPv4.mobileHost[4].wlan[0].mac 	numReceivedOther 	7919
scalar NetworkMultiRadioIPv4.mobileHost[4].wlan[0].mac 	numCollision 	9874
scalar NetworkMultiRadioIPv4.mobileHost[4].wlan[0].mac 	numGivenUp 	0
scalar NetworkMultiRadioIPv4.mobileHost[4].wlan[0].mac 	numAckSend 	1466
scalar NetworkMultiRadioIPv4.mobileHost[4].wlan[0].mac 	numRetry 	3
scalar NetworkMultiRadioIPv4.mobileHost[4].wlan[1].mgmt 	"packets received by queue" 	1175
scalar NetworkMultiRadioIPv4.mobileHost[4].wlan[1].mgmt 	"packets dropped by queue" 	0
scalar NetworkMultiRadioIPv4.mobileHost[4].wlan[1].mac 	"Mean Frame Length" 	222
scalar NetworkMultiRadioIPv4.mobileHost[4].wlan[1].mac 	"Frame Length stddev" 	0
scalar NetworkMultiRadioIPv4.mobileHost[4].wlan[1].mac 	"Sent Throughput" 	0.096170339746262
scalar NetworkMultiRadioIPv4.mobileHost[4].wlan[1].mac 	"CW medio" 	117.62542955326
scalar NetworkMultiRadioIPv4.mobileHost[4].wlan[1].mac 	"CW max" 	1020
scalar NetworkMultiRadioIPv4.mobileHost[4].wlan[1].mac 	"CW dev" 	187.25927938774
scalar NetworkMultiRadioIPv4.mobileHost[4].wlan[1].mac 	"Mean service time" 	0.0065028549352696
scalar NetworkMultiRadioIPv4.mobileHost[4].wlan[1].mac 	numSent 	1083
scalar NetworkMultiRadioIPv4.mobileHost[4].wlan[1].mac 	numSentWithoutRetry 	401
scalar NetworkMultiRadioIPv4.mobileHost[4].wlan[1].mac 	numReceived 	1317
scalar NetworkMultiRadioIPv4.mobileHost[4].wlan[1].mac 	numSelfReceived 	1175
scalar NetworkMultiRadioIPv4.mobileHost[4].wlan[1].mac 	numSentBroadcast 	-1
scalar NetworkMultiRadioIPv4.mobileHost[4].wlan[1].mac 	numReceivedBroadcast 	0
scalar NetworkMultiRadioIPv4.mobileHost[4].wlan[1].mac 	numReceivedOther 	6679
scalar NetworkMultiRadioIPv4.mobileHost[4].wlan[1].mac 	numCollision 	5380
scalar NetworkMultiRadioIPv4.mobileHost[4].wlan[1].mac 	numGivenUp 	92
scalar NetworkMultiRadioIPv4.mobileHost[4].wlan[1].mac 	numAckSend 	1317
scalar NetworkMultiRadioIPv4.mobileHost[4].wlan[1].mac 	numRetry 	2241
scalar NetworkMultiRadioIPv4.mobileHost[4].wlan[2].mgmt 	"packets received by queue" 	493
scalar NetworkMultiRadioIPv4.mobileHost[4].wlan[2].mgmt 	"packets dropped by queue" 	0
scalar NetworkMultiRadioIPv4.mobileHost[4].wlan[2].mac 	"Mean Frame Length" 	222
scalar NetworkMultiRadioIPv4.mobileHost[4].wlan[2].mac 	"Frame Length stddev" 	0
scalar NetworkMultiRadioIPv4.mobileHost[4].wlan[2].mac 	"Sent Throughput" 	0.038539175853996
scalar NetworkMultiRadioIPv4.mobileHost[4].wlan[2].mac 	"CW medio" 	140.59346504559
scalar NetworkMultiRadioIPv4.mobileHost[4].wlan[2].mac 	"CW max" 	1019
scalar NetworkMultiRadioIPv4.mobileHost[4].wlan[2].mac 	"CW dev" 	205.01894840334
scalar NetworkMultiRadioIPv4.mobileHost[4].wlan[2].mac 	"Mean service time" 	0.0050002041530392
scalar NetworkMultiRadioIPv4.mobileHost[4].wlan[2].mac 	numSent 	434
scalar NetworkMultiRadioIPv4.mobileHost[4].wlan[2].mac 	numSentWithoutRetry 	152
scalar NetworkMultiRadioIPv4.mobileHost[4].wlan[2].mac 	numReceived 	588
scalar NetworkMultiRadioIPv4.mobileHost[4].wlan[2].mac 	numSelfReceived 	493
scalar NetworkMultiRadioIPv4.mobileHost[4].wlan[2].mac 	numSentBroadcast 	-1
scalar NetworkMultiRadioIPv4.mobileHost[4].wlan[2].mac 	numReceivedBroadcast 	0
scalar NetworkMultiRadioIPv4.mobileHost[4].wlan[2].mac 	numReceivedOther 	4328
scalar NetworkMultiRadioIPv4.mobileHost[4].wlan[2].mac 	numCollision 	3804
scalar NetworkMultiRadioIPv4.mobileHost[4].wlan[2].mac 	numGivenUp 	57
scalar NetworkMultiRadioIPv4.mobileHost[4].wlan[2].mac 	numAckSend 	588
scalar NetworkMultiRadioIPv4.mobileHost[4].wlan[2].mac 	numRetry 	1117
scalar NetworkMultiRadioIPv4.mobileHost[4].manetRouting.manetmanager.manetroutingprotocol 	"Position X" 	600
scalar NetworkMultiRadioIPv4.mobileHost[4].manetRouting.manetmanager.manetroutingprotocol 	"Position Y" 	0
scalar NetworkMultiRadioIPv4.mobileHost[4].manetRouting.manetmanager.manetroutingprotocol 	lonelyCount 	0
scalar NetworkMultiRadioIPv4.mobileHost[4].manetRouting.manetmanager.manetroutingprotocol 	noNextHopCount 	0
scalar NetworkMultiRadioIPv4.mobileHost[4].manetRouting.manetmanager.manetroutingprotocol 	"Forwarding rate" 	0.7037037037037
scalar NetworkMultiRadioIPv4.mobileHost[4].manetRouting.manetmanager.manetroutingprotocol 	Load 	0.37813976677911
scalar NetworkMultiRadioIPv4.mobileHost[4].manetRouting.manetmanager.manetroutingprotocol 	"Interarrival time" 	0.011364122063354
scalar NetworkMultiRadioIPv4.mobileHost[5].udpApp[0] 	"Total send" 	0
scalar NetworkMultiRadioIPv4.mobileHost[5].udpApp[0] 	"Total received" 	538
scalar NetworkMultiRadioIPv4.mobileHost[5].udpApp[0] 	"Total deleted" 	190
scalar NetworkMultiRadioIPv4.mobileHost[5].udpApp[0] 	"Mean delay" 	0.038270301656296
scalar NetworkMultiRadioIPv4.mobileHost[5].udpApp[0] 	"Min delay" 	0.002069910135
scalar NetworkMultiRadioIPv4.mobileHost[5].udpApp[0] 	"Max delay" 	0.141381821701
scalar NetworkMultiRadioIPv4.mobileHost[5].udpApp[0] 	"Deviation delay" 	0.02485113889147
scalar NetworkMultiRadioIPv4.mobileHost[5].udpApp[0] 	"TTL27 NumOfBurstsReceived" 	1
scalar NetworkMultiRadioIPv4.mobileHost[5].udpApp[0] 	"TTL27 NumOfPacketsReceived" 	538
scalar NetworkMultiRadioIPv4.mobileHost[5].udpApp[1] 	"Total send" 	0
scalar NetworkMultiRadioIPv4.mobileHost[5].udpApp[1] 	"Total received" 	0
scalar NetworkMultiRadioIPv4.mobileHost[5].udpApp[1] 	"Total deleted" 	0
scalar NetworkMultiRadioIPv4.mobileHost[5].udpApp[1] 	"Mean delay" 	0
scalar NetworkMultiRadioIPv4.mobileHost[5].udpApp[1] 	"Min delay" 	0
scalar NetworkMultiRadioIPv4.mobileHost[5].udpApp[1] 	"Max delay" 	0
scalar NetworkMultiRadioIPv4.mobileHost[5].udpApp[1] 	"Deviation delay" 	nan
scalar NetworkMultiRadioIPv4.mobileHost[5].udpApp[2] 	"Total send" 	0
scalar NetworkMultiRadioIPv4.mobileHost[5].udpApp[2] 	"Total received" 	0
scalar NetworkMultiRadioIPv4.mobileHost[5].udpApp[2] 	"Total deleted" 	0
scalar NetworkMultiRadioIPv4.mobileHost[5].udpApp[2] 	"Mean delay" 	0
scalar NetworkMultiRadioIPv4.mobileHost[5].udpApp[2] 	"Min delay" 	0
scalar NetworkMultiRadioIPv4.mobileHost[5].udpApp[2] 	"Max delay" 	0
scalar NetworkMultiRadioIPv4.mobileHost[5].udpApp[2] 	"Deviation delay" 	nan
scalar NetworkMultiRadioIPv4.mobileHost[5].pingApp 	"Pings sent" 	0
scalar NetworkMultiRadioIPv4.mobileHost[5].wlan[0].mgmt 	"packets received by queue" 	0
scalar NetworkMultiRadioIPv4.mobileHost[5].wlan[0].mgmt 	"packets dropped by queue" 	0
scalar NetworkMultiRadioIPv4.mobileHost[5].wlan[0].mac 	"Mean Frame Length" 	0
scalar NetworkMultiRadioIPv4.mobileHost[5].wlan[0].mac 	"Frame Length stddev" 	nan
scalar NetworkMultiRadioIPv4.mobileHost[5].wlan[0].mac 	"Sent Throughput" 	0
scalar NetworkMultiRadioIPv4.mobileHost[5].wlan[0].mac 	"CW medio" 	0
scalar NetworkMultiRadioIPv4.mobileHost[5].wlan[0].mac 	"CW max" 	0
scalar NetworkMultiRadioIPv4.mobileHost[5].wlan[0].mac 	"CW dev" 	nan
scalar NetworkMultiRadioIPv4.mobileHost[5].wlan[0].mac 	"Mean service time" 	0
scalar NetworkMultiRadioIPv4.mobileHost[5].wlan[0].mac 	numSent 	0
scalar NetworkMultiRadioIPv4.mobileHost[5].wlan[0].mac 	numSentWithoutRetry 	0
scalar NetworkMultiRadioIPv4.mobileHost[5].wlan[0].mac 	numReceived 	1
scalar NetworkMultiRadioIPv4.mobileHost[5].wlan[0].mac 	numSelfReceived 	0
scalar NetworkMultiRadioIPv4.mobileHost[5].wlan[0].mac 	numSentBroadcast 	-1
scalar NetworkMultiRadioIPv4.mobileHost[5].wlan[0].mac 	numReceivedBroadcast 	0
scalar NetworkMultiRadioIPv4.mobileHost[5].wlan[0].mac 	numReceivedOther 	5620
scalar NetworkMultiRadioIPv4.mobileHost[5].wlan[0].mac 	numCollision 	4749
scalar NetworkMultiRadioIPv4.mobileHost[5].wlan[0].mac 	numGivenUp 	0
scalar NetworkMultiRadioIPv4.mobileHost[5].wlan[0].mac 	numAckSend 	1
scalar NetworkMultiRadioIPv4.mobileHost[5].wlan[0].mac 	numRetry 	0
scalar NetworkMultiRadioIPv4.mobileHost[5].wlan[1].mgmt 	"packets received by queue" 	0
scalar NetworkMultiRadioIPv4.mobileHost[5].wlan[1].mgmt 	"packets dropped by queue" 	0
scalar NetworkMultiRadioIPv4.mobileHost[5].wlan[1].mac 	"Mean Frame Length" 	0
scalar NetworkMultiRadioIPv4.mobileHost[5].wlan[1].mac 	"Frame Length stddev" 	nan
scalar NetworkMultiRadioIPv4.mobileHost[5].wlan[1].mac 	"Sent Throughput" 	0
scalar NetworkMultiRadioIPv4.mobileHost[5].wlan[1].mac 	"CW medio" 	0
scalar NetworkMultiRadioIPv4.mobileHost[5].wlan[1].mac 	"CW max" 	0
scalar NetworkMultiRadioIPv4.mobileHost[5].wlan[1].mac 	"CW dev" 	nan
scalar NetworkMultiRadioIPv4.mobileHost[5].wlan[1].mac 	"Mean service time" 	0
scalar NetworkMultiRadioIPv4.mobileHost[5].wlan[1].mac 	numSent 	0
scalar NetworkMultiRadioIPv4.mobileHost[5].wlan[1].mac 	numSentWithoutRetry 	0
scalar NetworkMultiRadioIPv4.mobileHost[5].wlan[1].mac 	numReceived 	517
scalar NetworkMultiRadioIPv4.mobileHost[5].wlan[1].mac 	numSelfReceived 	0
scalar NetworkMultiRadioIPv4.mobileHost[5].wlan[1].mac 	numSentBroadcast 	-1
scalar NetworkMultiRadioIPv4.mobileHost[5].wlan[1].mac 	numReceivedBroadcast 	0
scalar NetworkMultiRadioIPv4.mobileHost[5].wlan[1].mac 	numReceivedOther 	5070
scalar NetworkMultiRadioIPv4.mobileHost[5].wlan[1].mac 	numCollision 	3467
scalar NetworkMultiRadioIPv4.mobileHost[5].wlan[1].mac 	numGivenUp 	0
scalar NetworkMultiRadioIPv4.mobileHost[5].wlan[1].mac 	numAckSend 	517
scalar NetworkMultiRadioIPv4.mobileHost[5].wlan[1].mac 	numRetry 	0
scalar NetworkMultiRadioIPv4.mobileHost[5].wlan[2].mgmt 	"packets received by queue" 	0
scalar NetworkMultiRadioIPv4.mobileHost[5].wlan[2].mgmt 	"packets dropped by queue" 	0
scalar NetworkMultiRadioIPv4.mobileHost[5].wlan[2].mac 	"Mean Frame Length" 	0
scalar NetworkMultiRadioIPv4.mobileHost[5].wlan[2].mac 	"Frame Length stddev" 	nan
scalar NetworkMultiRadioIPv4.mobileHost[5].wlan[2].mac 	"Sent Throughput" 	0
scalar NetworkMultiRadioIPv4.mobileHost[5].wlan[2].mac 	"CW medio" 	0
scalar NetworkMultiRadioIPv4.mobileHost[5].wlan[2].mac 	"CW max" 	0
scalar NetworkMultiRadioIPv4.mobileHost[5].wlan[2].mac 	"CW dev" 	nan
scalar NetworkMultiRadioIPv4.mobileHost[5].wlan[2].mac 	"Mean service time" 	0
scalar NetworkMultiRadioIPv4.mobileHost[5].wlan[2].mac 	numSent 	0
scalar NetworkMultiRadioIPv4.mobileHost[5].wlan[2].mac 	numSentWithoutRetry 	0
scalar NetworkMultiRadioIPv4.mobileHost[5].wlan[2].mac 	numReceived 	210
scalar NetworkMultiRadioIPv4.mobileHost[5].wlan[2].mac 	numSelfReceived 	0
scalar NetworkMultiRadioIPv4.mobileHost[5].wlan[2].mac 	numSentBroadcast 	-1
scalar NetworkMultiRadioIPv4.mobileHost[5].wlan[2].mac 	numReceivedBroadcast 	0
scalar NetworkMultiRadioIPv4.mobileHost[5].wlan[2].mac 	numReceivedOther 	1951
scalar NetworkMultiRadioIPv4.mobileHost[5].wlan[2].mac 	numCollision 	1144
scalar NetworkMultiRadioIPv4.mobileHost[5].wlan[2].mac 	numGivenUp 	0
scalar NetworkMultiRadioIPv4.mobileHost[5].wlan[2].mac 	numAckSend 	210
scalar NetworkMultiRadioIPv4.mobileHost[5].wlan[2].mac 	numRetry 	0
scalar NetworkMultiRadioIPv4.mobileHost[5].manetRouting.manetmanager.manetroutingprotocol 	"Position X" 	750
scalar NetworkMultiRadioIPv4.mobileHost[5].manetRouting.manetmanager.manetroutingprotocol 	"Position Y" 	0
scalar NetworkMultiRadioIPv4.mobileHost[5].manetRouting.manetmanager.manetroutingprotocol 	lonelyCount 	0
scalar NetworkMultiRadioIPv4.mobileHost[5].manetRouting.manetmanager.manetroutingprotocol 	noNextHopCount 	0
scalar NetworkMultiRadioIPv4.mobileHost[5].manetRouting.manetmanager.manetroutingprotocol 	"Forwarding rate" 	0
scalar NetworkMultiRadioIPv4.mobileHost[5].manetRouting.manetmanager.manetroutingprotocol 	Load 	1
scalar NetworkMultiRadioIPv4.mobileHost[5].manetRouting.manetmanager.manetroutingprotocol 	"Interarrival time" 	0
scalar NetworkMultiRadioIPv4.mobileHost[6].udpApp[0] 	"Total send" 	928
scalar NetworkMultiRadioIPv4.mobileHost[6].udpApp[0] 	"Total received" 	1470
scalar NetworkMultiRadioIPv4.mobileHost[6].udpApp[0] 	"Total deleted" 	169
scalar NetworkMultiRadioIPv4.mobileHost[6].udpApp[0] 	"Mean delay" 	0.015862862215447
scalar NetworkMultiRadioIPv4.mobileHost[6].udpApp[0] 	"Min delay" 	0.000181
scalar NetworkMultiRadioIPv4.mobileHost[6].udpApp[0] 	"Max delay" 	0.121995518089
scalar NetworkMultiRadioIPv4.mobileHost[6].udpApp[0] 	"Deviation delay" 	0.016963827976184
scalar NetworkMultiRadioIPv4.mobileHost[6].udpApp[0] 	"TTL30 NumOfBurstsReceived" 	2
scalar NetworkMultiRadioIPv4.mobileHost[6].udpApp[0] 	"TTL30 NumOfPacketsReceived" 	1470
scalar NetworkMultiRadioIPv4.mobileHost[6].udpApp[1] 	"Total send" 	0
scalar NetworkMultiRadioIPv4.mobileHost[6].udpApp[1] 	"Total received" 	0
scalar NetworkMultiRadioIPv4.mobileHost[6].udpApp[1] 	"Total deleted" 	0
scalar NetworkMultiRadioIPv4.mobileHost[6].udpApp[1] 	"Mean delay" 	0
scalar NetworkMultiRadioIPv4.mobileHost[6].udpApp[1] 	"Min delay" 	0
scalar NetworkMultiRadioIPv4.mobileHost[6].udpApp[1] 	"Max delay" 	0
scalar NetworkMultiRadioIPv4.mobileHost[6].udpApp[1] 	"Deviation delay" 	nan
scalar NetworkMultiRadioIPv4.mobileHost[6].udpApp[2] 	"Total send" 	0
scalar NetworkMultiRadioIPv4.mobileHost[6].udpApp[2] 	"Total received" 	0
scalar NetworkMultiRadioIPv4.mobileHost[6].udpApp[2] 	"Total deleted" 	0
scalar NetworkMultiRadioIPv4.mobileHost[6].udpApp[2] 	"Mean delay" 	0
scalar NetworkMultiRadioIPv4.mobileHost[6].udpApp[2] 	"Min delay" 	0
scalar NetworkMultiRadioIPv4.mobileHost[6].udpApp[2] 	"Max delay" 	0
scalar NetworkMultiRadioIPv4.mobileHost[6].udpApp[2] 	"Deviation delay" 	nan
scalar NetworkMultiRadioIPv4.mobileHost[6].pingApp 	"Pings sent" 	0
scalar NetworkMultiRadioIPv4.mobileHost[6].wlan[0].mgmt 	"packets received by queue" 	40
scalar NetworkMultiRadioIPv4.mobileHost[6].wlan[0].mgmt 	"packets dropped by queue" 	0
scalar NetworkMultiRadioIPv4.mobileHost[6].wlan[0].mac 	"Mean Frame Length" 	222
scalar NetworkMultiRadioIPv4.mobileHost[6].wlan[0].mac 	"Frame Length stddev" 	0
scalar NetworkMultiRadioIPv4.mobileHost[6].wlan[0].mac 	"Sent Throughput" 	0.0031967979971057
scalar NetworkMultiRadioIPv4.mobileHost[6].wlan[0].mac 	"CW medio" 	157.24107142857
scalar NetworkMultiRadioIPv4.mobileHost[6].wlan[0].mac 	"CW max" 	1007
scalar NetworkMultiRadioIPv4.mobileHost[6].wlan[0].mac 	"CW dev" 	232.16696560786
scalar NetworkMultiRadioIPv4.mobileHost[6].wlan[0].mac 	"Mean service time" 	0.0057860979976389
scalar NetworkMultiRadioIPv4.mobileHost[6].wlan[0].mac 	numSent 	36
scalar NetworkMultiRadioIPv4.mobileHost[6].wlan[0].mac 	numSentWithoutRetry 	15
scalar NetworkMultiRadioIPv4.mobileHost[6].wlan[0].mac 	numReceived 	1800
scalar NetworkMultiRadioIPv4.mobileHost[6].wlan[0].mac 	numSelfReceived 	40
scalar NetworkMultiRadioIPv4.mobileHost[6].wlan[0].mac 	numSentBroadcast 	-1
scalar NetworkMultiRadioIPv4.mobileHost[6].wlan[0].mac 	numReceivedBroadcast 	0
scalar NetworkMultiRadioIPv4.mobileHost[6].wlan[0].mac 	numReceivedOther 	6093
scalar NetworkMultiRadioIPv4.mobileHost[6].wlan[0].mac 	numCollision 	8120
scalar NetworkMultiRadioIPv4.mobileHost[6].wlan[0].mac 	numGivenUp 	4
scalar NetworkMultiRadioIPv4.mobileHost[6].wlan[0].mac 	numAckSend 	1800
scalar NetworkMultiRadioIPv4.mobileHost[6].wlan[0].mac 	numRetry 	85
scalar NetworkMultiRadioIPv4.mobileHost[6].wlan[1].mgmt 	"packets received by queue" 	1544
scalar NetworkMultiRadioIPv4.mobileHost[6].wlan[1].mgmt 	"packets dropped by queue" 	0
scalar NetworkMultiRadioIPv4.mobileHost[6].wlan[1].mac 	"Mean Frame Length" 	222
scalar NetworkMultiRadioIPv4.mobileHost[6].wlan[1].mac 	"Frame Length stddev" 	0
scalar NetworkMultiRadioIPv4.mobileHost[6].wlan[1].mac 	"Sent Throughput" 	0.1308911179926
scalar NetworkMultiRadioIPv4.mobileHost[6].wlan[1].mac 	"CW medio" 	97.387237762238
scalar NetworkMultiRadioIPv4.mobileHost[6].wlan[1].mac 	"CW max" 	1023
scalar NetworkMultiRadioIPv4.mobileHost[6].wlan[1].mac 	"CW dev" 	168.46213066124
scalar NetworkMultiRadioIPv4.mobileHost[6].wlan[1].mac 	"Mean service time" 	0.0084817875089762
scalar NetworkMultiRadioIPv4.mobileHost[6].wlan[1].mac 	numSent 	1474
scalar NetworkMultiRadioIPv4.mobileHost[6].wlan[1].mac 	numSentWithoutRetry 	662
scalar NetworkMultiRadioIPv4.mobileHost[6].wlan[1].mac 	numReceived 	1098
scalar NetworkMultiRadioIPv4.mobileHost[6].wlan[1].mac 	numSelfReceived 	1544
scalar NetworkMultiRadioIPv4.mobileHost[6].wlan[1].mac 	numSentBroadcast 	-1
scalar NetworkMultiRadioIPv4.mobileHost[6].wlan[1].mac 	numReceivedBroadcast 	0
scalar NetworkMultiRadioIPv4.mobileHost[6].wlan[1].mac 	numReceivedOther 	11226
scalar NetworkMultiRadioIPv4.mobileHost[6].wlan[1].mac 	numCollision 	7944
scalar NetworkMultiRadioIPv4.mobileHost[6].wlan[1].mac 	numGivenUp 	70
scalar NetworkMultiRadioIPv4.mobileHost[6].wlan[1].mac 	numAckSend 	1098
scalar NetworkMultiRadioIPv4.mobileHost[6].wlan[1].mac 	numRetry 	2296
scalar NetworkMultiRadioIPv4.mobileHost[6].wlan[2].mgmt 	"packets received by queue" 	1393
scalar NetworkMultiRadioIPv4.mobileHost[6].wlan[2].mgmt 	"packets dropped by queue" 	0
scalar NetworkMultiRadioIPv4.mobileHost[6].wlan[2].mac 	"Mean Frame Length" 	222
scalar NetworkMultiRadioIPv4.mobileHost[6].wlan[2].mac 	"Frame Length stddev" 	0
scalar NetworkMultiRadioIPv4.mobileHost[6].wlan[2].mac 	"Sent Throughput" 	0.11552872761762
scalar NetworkMultiRadioIPv4.mobileHost[6].wlan[2].mac 	"CW medio" 	100.91270081843
scalar NetworkMultiRadioIPv4.mobileHost[6].wlan[2].mac 	"CW max" 	1020
scalar NetworkMultiRadioIPv4.mobileHost[6].wlan[2].mac 	"CW dev" 	176.57406692124
scalar NetworkMultiRadioIPv4.mobileHost[6].wlan[2].mac 	"Mean service time" 	0.0092756437182329
scalar NetworkMultiRadioIPv4.mobileHost[6].wlan[2].mac 	numSent 	1301
scalar NetworkMultiRadioIPv4.mobileHost[6].wlan[2].mac 	numSentWithoutRetry 	525
scalar NetworkMultiRadioIPv4.mobileHost[6].wlan[2].mac 	numReceived 	807
scalar NetworkMultiRadioIPv4.mobileHost[6].wlan[2].mac 	numSelfReceived 	1391
scalar NetworkMultiRadioIPv4.mobileHost[6].wlan[2].mac 	numSentBroadcast 	-1
scalar NetworkMultiRadioIPv4.mobileHost[6].wlan[2].mac 	numReceivedBroadcast 	0
scalar NetworkMultiRadioIPv4.mobileHost[6].wlan[2].mac 	numReceivedOther 	7660
scalar NetworkMultiRadioIPv4.mobileHost[6].wlan[2].mac 	numCollision 	7056
scalar NetworkMultiRadioIPv4.mobileHost[6].wlan[2].mac 	numGivenUp 	88
scalar NetworkMultiRadioIPv4.mobileHost[6].wlan[2].mac 	numAckSend 	807
scalar NetworkMultiRadioIPv4.mobileHost[6].wlan[2].mac 	numRetry 	2303
scalar NetworkMultiRadioIPv4.mobileHost[6].manetRouting.manetmanager.manetroutingprotocol 	"Position X" 	0
scalar NetworkMultiRadioIPv4.mobileHost[6].manetRouting.manetmanager.manetroutingprotocol 	"Position Y" 	150
scalar NetworkMultiRadioIPv4.mobileHost[6].manetRouting.manetmanager.manetroutingprotocol 	lonelyCount 	0
scalar NetworkMultiRadioIPv4.mobileHost[6].manetRouting.manetmanager.manetroutingprotocol 	noNextHopCount 	0
scalar NetworkMultiRadioIPv4.mobileHost[6].manetRouting.manetmanager.manetroutingprotocol 	"Forwarding rate" 	0.85780423280423
scalar NetworkMultiRadioIPv4.mobileHost[6].manetRouting.manetmanager.manetroutingprotocol 	Load 	0.51374887207889
scalar NetworkMultiRadioIPv4.mobileHost[6].manetRouting.manetmanager.manetroutingprotocol 	"Interarrival time" 	0.006381205029822
scalar NetworkMultiRadioIPv4.mobileHost[7].udpApp[0] 	"Total send" 	928
scalar NetworkMultiRadioIPv4.mobileHost[7].udpApp[0] 	"Total received" 	585
scalar NetworkMultiRadioIPv4.mobileHost[7].udpApp[0] 	"Total deleted" 	1026
scalar NetworkMultiRadioIPv4.mobileHost[7].udpApp[0] 	"Mean delay" 	0.05884026696112
scalar NetworkMultiRadioIPv4.mobileHost[7].udpApp[0] 	"Min delay" 	0.000181
scalar NetworkMultiRadioIPv4.mobileHost[7].udpApp[0] 	"Max delay" 	0.508383052637
scalar NetworkMultiRadioIPv4.mobileHost[7].udpApp[0] 	"Deviation delay" 	0.077066570721181
scalar NetworkMultiRadioIPv4.mobileHost[7].udpApp[0] 	"TTL29 NumOfBurstsReceived" 	1
scalar NetworkMultiRadioIPv4.mobileHost[7].udpApp[0] 	"TTL29 NumOfPacketsReceived" 	198
scalar NetworkMultiRadioIPv4.mobileHost[7].udpApp[0] 	"TTL30 NumOfBurstsReceived" 	1
scalar NetworkMultiRadioIPv4.mobileHost[7].udpApp[0] 	"TTL30 NumOfPacketsReceived" 	387
scalar NetworkMultiRadioIPv4.mobileHost[7].udpApp[1] 	"Total send" 	0
scalar NetworkMultiRadioIPv4.mobileHost[7].udpApp[1] 	"Total received" 	0
scalar NetworkMultiRadioIPv4.mobileHost[7].udpApp[1] 	"Total deleted" 	0
scalar NetworkMultiRadioIPv4.mobileHost[7].udpApp[1] 	"Mean delay" 	0
scalar NetworkMultiRadioIPv4.mobileHost[7].udpApp[1] 	"Min delay" 	0
scalar NetworkMultiRadioIPv4.mobileHost[7].udpApp[1] 	"Max delay" 	0
scalar NetworkMultiRadioIPv4.mobileHost[7].udpApp[1] 	"Deviation delay" 	nan
scalar NetworkMultiRadioIPv4.mobileHost[7].udpApp[2] 	"Total send" 	0
scalar NetworkMultiRadioIPv4.mobileHost[7].udpApp[2] 	"Total received" 	0
scalar NetworkMultiRadioIPv4.mobileHost[7].udpApp[2] 	"Total deleted" 	0
scalar NetworkMultiRadioIPv4.mobileHost[7].udpApp[2] 	"Mean delay" 	0
scalar NetworkMultiRadioIPv4.mobileHost[7].udpApp[2] 	"Min delay" 	0
scalar NetworkMultiRadioIPv4.mobileHost[7].udpApp[2] 	"Max delay" 	0
scalar NetworkMultiRadioIPv4.mobileHost[7].udpApp[2] 	"Deviation delay" 	nan
scalar NetworkMultiRadioIPv4.mobileHost[7].pingApp 	"Pings sent" 	0
scalar NetworkMultiRadioIPv4.mobileHost[7].wlan[0].mgmt 	"packets received by queue" 	1009
scalar NetworkMultiRadioIPv4.mobileHost[7].wlan[0].mgmt 	"packets dropped by queue" 	0
scalar NetworkMultiRadioIPv4.mobileHost[7].wlan[0].mac 	"Mean Frame Length" 	222
scalar NetworkMultiRadioIPv4.mobileHost[7].wlan[0].mac 	"Frame Length stddev" 	0
scalar NetworkMultiRadioIPv4.mobileHost[7].wlan[0].mac 	"Sent Throughput" 	0.082495148314199
scalar NetworkMultiRadioIPv4.mobileHost[7].wlan[0].mac 	"CW medio" 	106.68462361755
scalar NetworkMultiRadioIPv4.mobileHost[7].wlan[0].mac 	"CW max" 	1016
scalar NetworkMultiRadioIPv4.mobileHost[7].wlan[0].mac 	"CW dev" 	178.41379895381
scalar NetworkMultiRadioIPv4.mobileHost[7].wlan[0].mac 	"Mean service time" 	0.023575240883883
scalar NetworkMultiRadioIPv4.mobileHost[7].wlan[0].mac 	numSent 	929
scalar NetworkMultiRadioIPv4.mobileHost[7].wlan[0].mac 	numSentWithoutRetry 	343
scalar NetworkMultiRadioIPv4.mobileHost[7].wlan[0].mac 	numReceived 	1089
scalar NetworkMultiRadioIPv4.mobileHost[7].wlan[0].mac 	numSelfReceived 	1009
scalar NetworkMultiRadioIPv4.mobileHost[7].wlan[0].mac 	numSentBroadcast 	-1
scalar NetworkMultiRadioIPv4.mobileHost[7].wlan[0].mac 	numReceivedBroadcast 	0
scalar NetworkMultiRadioIPv4.mobileHost[7].wlan[0].mac 	numReceivedOther 	13131
scalar NetworkMultiRadioIPv4.mobileHost[7].wlan[0].mac 	numCollision 	13150
scalar NetworkMultiRadioIPv4.mobileHost[7].wlan[0].mac 	numGivenUp 	80
scalar NetworkMultiRadioIPv4.mobileHost[7].wlan[0].mac 	numAckSend 	1089
scalar NetworkMultiRadioIPv4.mobileHost[7].wlan[0].mac 	numRetry 	1938
scalar NetworkMultiRadioIPv4.mobileHost[7].wlan[1].mgmt 	"packets received by queue" 	1549
scalar NetworkMultiRadioIPv4.mobileHost[7].wlan[1].mgmt 	"packets dropped by queue" 	0
scalar NetworkMultiRadioIPv4.mobileHost[7].wlan[1].mac 	"Mean Frame Length" 	222
scalar NetworkMultiRadioIPv4.mobileHost[7].wlan[1].mac 	"Frame Length stddev" 	0
scalar NetworkMultiRadioIPv4.mobileHost[7].wlan[1].mac 	"Sent Throughput" 	0.13169031749188
scalar NetworkMultiRadioIPv4.mobileHost[7].wlan[1].mac 	"CW medio" 	87.76152758133
scalar NetworkMultiRadioIPv4.mobileHost[7].wlan[1].mac 	"CW max" 	1005
scalar NetworkMultiRadioIPv4.mobileHost[7].wlan[1].mac 	"CW dev" 	162.3609918413
scalar NetworkMultiRadioIPv4.mobileHost[7].wlan[1].mac 	"Mean service time" 	0.012123624019664
scalar NetworkMultiRadioIPv4.mobileHost[7].wlan[1].mac 	numSent 	1483
scalar NetworkMultiRadioIPv4.mobileHost[7].wlan[1].mac 	numSentWithoutRetry 	692
scalar NetworkMultiRadioIPv4.mobileHost[7].wlan[1].mac 	numReceived 	2038
scalar NetworkMultiRadioIPv4.mobileHost[7].wlan[1].mac 	numSelfReceived 	1549
scalar NetworkMultiRadioIPv4.mobileHost[7].wlan[1].mac 	numSentBroadcast 	-1
scalar NetworkMultiRadioIPv4.mobileHost[7].wlan[1].mac 	numReceivedBroadcast 	0
scalar NetworkMultiRadioIPv4.mobileHost[7].wlan[1].mac 	numReceivedOther 	18333
scalar NetworkMultiRadioIPv4.mobileHost[7].wlan[1].mac 	numCollision 	12162
scalar NetworkMultiRadioIPv4.mobileHost[7].wlan[1].mac 	numGivenUp 	66
scalar NetworkMultiRadioIPv4.mobileHost[7].wlan[1].mac 	numAckSend 	2038
scalar NetworkMultiRadioIPv4.mobileHost[7].wlan[1].mac 	numRetry 	2194
scalar NetworkMultiRadioIPv4.mobileHost[7].wlan[2].mgmt 	"packets received by queue" 	1367
scalar NetworkMultiRadioIPv4.mobileHost[7].wlan[2].mgmt 	"packets dropped by queue" 	0
scalar NetworkMultiRadioIPv4.mobileHost[7].wlan[2].mac 	"Mean Frame Length" 	222
scalar NetworkMultiRadioIPv4.mobileHost[7].wlan[2].mac 	"Frame Length stddev" 	0
scalar NetworkMultiRadioIPv4.mobileHost[7].wlan[2].mac 	"Sent Throughput" 	0.11455192822962
scalar NetworkMultiRadioIPv4.mobileHost[7].wlan[2].mac 	"CW medio" 	92.574984820886
scalar NetworkMultiRadioIPv4.mobileHost[7].wlan[2].mac 	"CW max" 	1010
scalar NetworkMultiRadioIPv4.mobileHost[7].wlan[2].mac 	"CW dev" 	163.34541487538
scalar NetworkMultiRadioIPv4.mobileHost[7].wlan[2].mac 	"Mean service time" 	0.017399964192312
scalar NetworkMultiRadioIPv4.mobileHost[7].wlan[2].mac 	numSent 	1290
scalar NetworkMultiRadioIPv4.mobileHost[7].wlan[2].mac 	numSentWithoutRetry 	565
scalar NetworkMultiRadioIPv4.mobileHost[7].wlan[2].mac 	numReceived 	1481
scalar NetworkMultiRadioIPv4.mobileHost[7].wlan[2].mac 	numSelfReceived 	1367
scalar NetworkMultiRadioIPv4.mobileHost[7].wlan[2].mac 	numSentBroadcast 	-1
scalar NetworkMultiRadioIPv4.mobileHost[7].wlan[2].mac 	numReceivedBroadcast 	0
scalar NetworkMultiRadioIPv4.mobileHost[7].wlan[2].mac 	numReceivedOther 	16546
scalar NetworkMultiRadioIPv4.mobileHost[7].wlan[2].mac 	numCollision 	12731
scalar NetworkMultiRadioIPv4.mobileHost[7].wlan[2].mac 	numGivenUp 	77
scalar NetworkMultiRadioIPv4.mobileHost[7].wlan[2].mac 	numAckSend 	1481
scalar NetworkMultiRadioIPv4.mobileHost[7].wlan[2].mac 	numRetry 	2140
scalar NetworkMultiRadioIPv4.mobileHost[7].manetRouting.manetmanager.manetroutingprotocol 	"Position X" 	150
scalar NetworkMultiRadioIPv4.mobileHost[7].manetRouting.manetmanager.manetroutingprotocol 	"Position Y" 	150
scalar NetworkMultiRadioIPv4.mobileHost[7].manetRouting.manetmanager.manetroutingprotocol 	lonelyCount 	0
scalar NetworkMultiRadioIPv4.mobileHost[7].manetRouting.manetmanager.manetroutingprotocol 	noNextHopCount 	0
scalar NetworkMultiRadioIPv4.mobileHost[7].manetRouting.manetmanager.manetroutingprotocol 	"Forwarding rate" 	0.87962962962963
scalar NetworkMultiRadioIPv4.mobileHost[7].manetRouting.manetmanager.manetroutingprotocol 	Load 	0.96278246511309
scalar NetworkMultiRadioIPv4.mobileHost[7].manetRouting.manetmanager.manetroutingprotocol 	"Interarrival time" 	0.0048398268430122
scalar NetworkMultiRadioIPv4.mobileHost[8].udpApp[0] 	"Total send" 	927
scalar NetworkMultiRadioIPv4.mobileHost[8].udpApp[0] 	"Total received" 	267
scalar NetworkMultiRadioIPv4.mobileHost[8].udpApp[0] 	"Total deleted" 	351
scalar NetworkMultiRadioIPv4.mobileHost[8].udpApp[0] 	"Mean delay" 	0.069469980538487
scalar NetworkMultiRadioIPv4.mobileHost[8].udpApp[0] 	"Min delay" 	0.001662914212
scalar NetworkMultiRadioIPv4.mobileHost[8].udpApp[0] 	"Max delay" 	0.255499954247
scalar NetworkMultiRadioIPv4.mobileHost[8].udpApp[0] 	"Deviation delay" 	0.05415984443108
scalar NetworkMultiRadioIPv4.mobileHost[8].udpApp[0] 	"TTL29 NumOfBurstsReceived" 	1
scalar NetworkMultiRadioIPv4.mobileHost[8].udpApp[0] 	"TTL29 NumOfPacketsReceived" 	267
scalar NetworkMultiRadioIPv4.mobileHost[8].udpApp[1] 	"Total send" 	0
scalar NetworkMultiRadioIPv4.mobileHost[8].udpApp[1] 	"Total received" 	0
scalar NetworkMultiRadioIPv4.mobileHost[8].udpApp[1] 	"Total deleted" 	0
scalar NetworkMultiRadioIPv4.mobileHost[8].udpApp[1] 	"Mean delay" 	0
scalar NetworkMultiRadioIPv4.mobileHost[8].udpApp[1] 	"Min delay" 	0
scalar NetworkMultiRadioIPv4.mobileHost[8].udpApp[1] 	"Max delay" 	0
scalar NetworkMultiRadioIPv4.mobileHost[8].udpApp[1] 	"Deviation delay" 	nan
scalar NetworkMultiRadioIPv4.mobileHost[8].udpApp[2] 	"Total send" 	0
scalar NetworkMultiRadioIPv4.mobileHost[8].udpApp[2] 	"Total received" 	0
scalar NetworkMultiRadioIPv4.mobileHost[8].udpApp[2] 	"Total deleted" 	0
scalar NetworkMultiRadioIPv4.mobileHost[8].udpApp[2] 	"Mean delay" 	0
scalar NetworkMultiRadioIPv4.mobileHost[8].udpApp[2] 	"Min delay" 	0
scalar NetworkMultiRadioIPv4.mobileHost[8].udpApp[2] 	"Max delay" 	0
scalar NetworkMultiRadioIPv4.mobileHost[8].udpApp[2] 	"Deviation delay" 	nan
scalar NetworkMultiRadioIPv4.mobileHost[8].pingApp 	"Pings sent" 	0
scalar NetworkMultiRadioIPv4.mobileHost[8].wlan[0].mgmt 	"packets received by queue" 	1736
scalar NetworkMultiRadioIPv4.mobileHost[8].wlan[0].mgmt 	"packets dropped by queue" 	44
scalar NetworkMultiRadioIPv4.mobileHost[8].wlan[0].mac 	"Mean Frame Length" 	222
scalar NetworkMultiRadioIPv4.mobileHost[8].wlan[0].mac 	"Frame Length stddev" 	0
scalar NetworkMultiRadioIPv4.mobileHost[8].wlan[0].mac 	"Sent Throughput" 	0.12973671871587
scalar NetworkMultiRadioIPv4.mobileHost[8].wlan[0].mac 	"CW medio" 	104.80332167832
scalar NetworkMultiRadioIPv4.mobileHost[8].wlan[0].mac 	"CW max" 	1019
scalar NetworkMultiRadioIPv4.mobileHost[8].wlan[0].mac 	"CW dev" 	182.00225002483
scalar NetworkMultiRadioIPv4.mobileHost[8].wlan[0].mac 	"Mean service time" 	0.38653487365458
scalar NetworkMultiRadioIPv4.mobileHost[8].wlan[0].mac 	numSent 	1461
scalar NetworkMultiRadioIPv4.mobileHost[8].wlan[0].mac 	numSentWithoutRetry 	575
scalar NetworkMultiRadioIPv4.mobileHost[8].wlan[0].mac 	numReceived 	1369
scalar NetworkMultiRadioIPv4.mobileHost[8].wlan[0].mac 	numSelfReceived 	1610
scalar NetworkMultiRadioIPv4.mobileHost[8].wlan[0].mac 	numSentBroadcast 	-1
scalar NetworkMultiRadioIPv4.mobileHost[8].wlan[0].mac 	numReceivedBroadcast 	0
scalar NetworkMultiRadioIPv4.mobileHost[8].wlan[0].mac 	numReceivedOther 	15282
scalar NetworkMultiRadioIPv4.mobileHost[8].wlan[0].mac 	numCollision 	15657
scalar NetworkMultiRadioIPv4.mobileHost[8].wlan[0].mac 	numGivenUp 	147
scalar NetworkMultiRadioIPv4.mobileHost[8].wlan[0].mac 	numAckSend 	1369
scalar NetworkMultiRadioIPv4.mobileHost[8].wlan[0].mac 	numRetry 	2993
scalar NetworkMultiRadioIPv4.mobileHost[8].wlan[1].mgmt 	"packets received by queue" 	1713
scalar NetworkMultiRadioIPv4.mobileHost[8].wlan[1].mgmt 	"packets dropped by queue" 	0
scalar NetworkMultiRadioIPv4.mobileHost[8].wlan[1].mac 	"Mean Frame Length" 	222
scalar NetworkMultiRadioIPv4.mobileHost[8].wlan[1].mac 	"Frame Length stddev" 	0
scalar NetworkMultiRadioIPv4.mobileHost[8].wlan[1].mac 	"Sent Throughput" 	0.14554310881267
scalar NetworkMultiRadioIPv4.mobileHost[8].wlan[1].mac 	"CW medio" 	84.140372983871
scalar NetworkMultiRadioIPv4.mobileHost[8].wlan[1].mac 	"CW max" 	1017
scalar NetworkMultiRadioIPv4.mobileHost[8].wlan[1].mac 	"CW dev" 	154.02700028502
scalar NetworkMultiRadioIPv4.mobileHost[8].wlan[1].mac 	"Mean service time" 	0.025512094638957
scalar NetworkMultiRadioIPv4.mobileHost[8].wlan[1].mac 	numSent 	1639
scalar NetworkMultiRadioIPv4.mobileHost[8].wlan[1].mac 	numSentWithoutRetry 	726
scalar NetworkMultiRadioIPv4.mobileHost[8].wlan[1].mac 	numReceived 	1704
scalar NetworkMultiRadioIPv4.mobileHost[8].wlan[1].mac 	numSelfReceived 	1713
scalar NetworkMultiRadioIPv4.mobileHost[8].wlan[1].mac 	numSentBroadcast 	-1
scalar NetworkMultiRadioIPv4.mobileHost[8].wlan[1].mac 	numReceivedBroadcast 	0
scalar NetworkMultiRadioIPv4.mobileHost[8].wlan[1].mac 	numReceivedOther 	18582
scalar NetworkMultiRadioIPv4.mobileHost[8].wlan[1].mac 	numCollision 	12900
scalar NetworkMultiRadioIPv4.mobileHost[8].wlan[1].mac 	numGivenUp 	74
scalar NetworkMultiRadioIPv4.mobileHost[8].wlan[1].mac 	numAckSend 	1704
scalar NetworkMultiRadioIPv4.mobileHost[8].wlan[1].mac 	numRetry 	2472
scalar NetworkMultiRadioIPv4.mobileHost[8].wlan[2].mgmt 	"packets received by queue" 	1480
scalar NetworkMultiRadioIPv4.mobileHost[8].wlan[2].mgmt 	"packets dropped by queue" 	0
scalar NetworkMultiRadioIPv4.mobileHost[8].wlan[2].mac 	"Mean Frame Length" 	222
scalar NetworkMultiRadioIPv4.mobileHost[8].wlan[2].mac 	"Frame Length stddev" 	0
scalar NetworkMultiRadioIPv4.mobileHost[8].wlan[2].mac 	"Sent Throughput" 	0.12414232222094
scalar NetworkMultiRadioIPv4.mobileHost[8].wlan[2].mac 	"CW medio" 	90.729382850901
scalar NetworkMultiRadioIPv4.mobileHost[8].wlan[2].mac 	"CW max" 	1022
scalar NetworkMultiRadioIPv4.mobileHost[8].wlan[2].mac 	"CW dev" 	166.26174788978
scalar NetworkMultiRadioIPv4.mobileHost[8].wlan[2].mac 	"Mean service time" 	0.031036625703336
scalar NetworkMultiRadioIPv4.mobileHost[8].wlan[2].mac 	numSent 	1398
scalar NetworkMultiRadioIPv4.mobileHost[8].wlan[2].mac 	numSentWithoutRetry 	584
scalar NetworkMultiRadioIPv4.mobileHost[8].wlan[2].mac 	numReceived 	1567
scalar NetworkMultiRadioIPv4.mobileHost[8].wlan[2].mac 	numSelfReceived 	1473
scalar NetworkMultiRadioIPv4.mobileHost[8].wlan[2].mac 	numSentBroadcast 	-1
scalar NetworkMultiRadioIPv4.mobileHost[8].wlan[2].mac 	numReceivedBroadcast 	0
scalar NetworkMultiRadioIPv4.mobileHost[8].wlan[2].mac 	numReceivedOther 	18343
scalar NetworkMultiRadioIPv4.mobileHost[8].wlan[2].mac 	numCollision 	15134
scalar NetworkMultiRadioIPv4.mobileHost[8].wlan[2].mac 	numGivenUp 	73
scalar NetworkMultiRadioIPv4.mobileHost[8].wlan[2].mac 	numAckSend 	1567
scalar NetworkMultiRadioIPv4.mobileHost[8].wlan[2].mac 	numRetry 	2307
scalar NetworkMultiRadioIPv4.mobileHost[8].manetRouting.manetmanager.manetroutingprotocol 	"Position X" 	300
scalar NetworkMultiRadioIPv4.mobileHost[8].manetRouting.manetmanager.manetroutingprotocol 	"Position Y" 	150
scalar NetworkMultiRadioIPv4.mobileHost[8].manetRouting.manetmanager.manetroutingprotocol 	lonelyCount 	0
scalar NetworkMultiRadioIPv4.mobileHost[8].manetRouting.manetmanager.manetroutingprotocol 	noNextHopCount 	0
scalar NetworkMultiRadioIPv4.mobileHost[8].manetRouting.manetmanager.manetroutingprotocol 	"Forwarding rate" 	0.93299501424501
scalar NetworkMultiRadioIPv4.mobileHost[8].manetRouting.manetmanager.manetroutingprotocol 	Load 	1
scalar NetworkMultiRadioIPv4.mobileHost[8].manetRouting.manetmanager.manetroutingprotocol 	"Interarrival time" 	0.0038541829555675
scalar NetworkMultiRadioIPv4.mobileHost[9].udpApp[0] 	"Total send" 	928
scalar NetworkMultiRadioIPv4.mobileHost[9].udpApp[0] 	"Total received" 	0
scalar NetworkMultiRadioIPv4.mobileHost[9].udpApp[0] 	"Total deleted" 	0
scalar NetworkMultiRadioIPv4.mobileHost[9].udpApp[0] 	"Mean delay" 	0
scalar NetworkMultiRadioIPv4.mobileHost[9].udpApp[0] 	"Min delay" 	0
scalar NetworkMultiRadioIPv4.mobileHost[9].udpApp[0] 	"Max delay" 	0
scalar NetworkMultiRadioIPv4.mobileHost[9].udpApp[0] 	"Deviation delay" 	nan
scalar NetworkMultiRadioIPv4.mobileHost[9].udpApp[1] 	"Total send" 	0
scalar NetworkMultiRadioIPv4.mobileHost[9].udpApp[1] 	"Total received" 	0
scalar NetworkMultiRadioIPv4.mobileHost[9].udpApp[1] 	"Total deleted" 	0
scalar NetworkMultiRadioIPv4.mobileHost[9].udpApp[1] 	"Mean delay" 	0
scalar NetworkMultiRadioIPv4.mobileHost[9].udpApp[1] 	"Min delay" 	0
scalar NetworkMultiRadioIPv4.mobileHost[9].udpApp[1] 	"Max delay" 	0
scalar NetworkMultiRadioIPv4.mobileHost[9].udpApp[1] 	"Deviation delay" 	nan
scalar NetworkMultiRadioIPv4.mobileHost[9].udpApp[2] 	"Total send" 	0
scalar NetworkMultiRadioIPv4.mobileHost[9].udpApp[2] 	"Total received" 	0
scalar NetworkMultiRadioIPv4.mobileHost[9].udpApp[2] 	"Total deleted" 	0
scalar NetworkMultiRadioIPv4.mobileHost[9].udpApp[2] 	"Mean delay" 	0
scalar NetworkMultiRadioIPv4.mobileHost[9].udpApp[2] 	"Min delay" 	0
scalar NetworkMultiRadioIPv4.mobileHost[9].udpApp[2] 	"Max delay" 	0
scalar NetworkMultiRadioIPv4.mobileHost[9].udpApp[2] 	"Deviation delay" 	nan
scalar NetworkMultiRadioIPv4.mobileHost[9].pingApp 	"Pings sent" 	0
scalar NetworkMultiRadioIPv4.mobileHost[9].wlan[0].mgmt 	"packets received by queue" 	1737
scalar NetworkMultiRadioIPv4.mobileHost[9].wlan[0].mgmt 	"packets dropped by queue" 	0
scalar NetworkMultiRadioIPv4.mobileHost[9].wlan[0].mac 	"Mean Frame Length" 	222
scalar NetworkMultiRadioIPv4.mobileHost[9].wlan[0].mac 	"Frame Length stddev" 	0
scalar NetworkMultiRadioIPv4.mobileHost[9].wlan[0].mac 	"Sent Throughput" 	0.14279031053739
scalar NetworkMultiRadioIPv4.mobileHost[9].wlan[0].mac 	"CW medio" 	95.089332748025
scalar NetworkMultiRadioIPv4.mobileHost[9].wlan[0].mac 	"CW max" 	1017
scalar NetworkMultiRadioIPv4.mobileHost[9].wlan[0].mac 	"CW dev" 	168.89312844101
scalar NetworkMultiRadioIPv4.mobileHost[9].wlan[0].mac 	"Mean service time" 	0.1157338938867
scalar NetworkMultiRadioIPv4.mobileHost[9].wlan[0].mac 	numSent 	1608
scalar NetworkMultiRadioIPv4.mobileHost[9].wlan[0].mac 	numSentWithoutRetry 	662
scalar NetworkMultiRadioIPv4.mobileHost[9].wlan[0].mac 	numReceived 	1241
scalar NetworkMultiRadioIPv4.mobileHost[9].wlan[0].mac 	numSelfReceived 	1718
scalar NetworkMultiRadioIPv4.mobileHost[9].wlan[0].mac 	numSentBroadcast 	-1
scalar NetworkMultiRadioIPv4.mobileHost[9].wlan[0].mac 	numReceivedBroadcast 	0
scalar NetworkMultiRadioIPv4.mobileHost[9].wlan[0].mac 	numReceivedOther 	16439
scalar NetworkMultiRadioIPv4.mobileHost[9].wlan[0].mac 	numCollision 	16127
scalar NetworkMultiRadioIPv4.mobileHost[9].wlan[0].mac 	numGivenUp 	108
scalar NetworkMultiRadioIPv4.mobileHost[9].wlan[0].mac 	numAckSend 	1241
scalar NetworkMultiRadioIPv4.mobileHost[9].wlan[0].mac 	numRetry 	2885
scalar NetworkMultiRadioIPv4.mobileHost[9].wlan[1].mgmt 	"packets received by queue" 	1565
scalar NetworkMultiRadioIPv4.mobileHost[9].wlan[1].mgmt 	"packets dropped by queue" 	0
scalar NetworkMultiRadioIPv4.mobileHost[9].wlan[1].mac 	"Mean Frame Length" 	222
scalar NetworkMultiRadioIPv4.mobileHost[9].wlan[1].mac 	"Frame Length stddev" 	0
scalar NetworkMultiRadioIPv4.mobileHost[9].wlan[1].mac 	"Sent Throughput" 	0.13488711548899
scalar NetworkMultiRadioIPv4.mobileHost[9].wlan[1].mac 	"CW medio" 	78.954463750749
scalar NetworkMultiRadioIPv4.mobileHost[9].wlan[1].mac 	"CW max" 	1020
scalar NetworkMultiRadioIPv4.mobileHost[9].wlan[1].mac 	"CW dev" 	152.4550220112
scalar NetworkMultiRadioIPv4.mobileHost[9].wlan[1].mac 	"Mean service time" 	0.014725354567302
scalar NetworkMultiRadioIPv4.mobileHost[9].wlan[1].mac 	numSent 	1519
scalar NetworkMultiRadioIPv4.mobileHost[9].wlan[1].mac 	numSentWithoutRetry 	721
scalar NetworkMultiRadioIPv4.mobileHost[9].wlan[1].mac 	numReceived 	1939
scalar NetworkMultiRadioIPv4.mobileHost[9].wlan[1].mac 	numSelfReceived 	1565
scalar NetworkMultiRadioIPv4.mobileHost[9].wlan[1].mac 	numSentBroadcast 	-1
scalar NetworkMultiRadioIPv4.mobileHost[9].wlan[1].mac 	numReceivedBroadcast 	0
scalar NetworkMultiRadioIPv4.mobileHost[9].wlan[1].mac 	numReceivedOther 	17029
scalar NetworkMultiRadioIPv4.mobileHost[9].wlan[1].mac 	numCollision 	12948
scalar NetworkMultiRadioIPv4.mobileHost[9].wlan[1].mac 	numGivenUp 	46
scalar NetworkMultiRadioIPv4.mobileHost[9].wlan[1].mac 	numAckSend 	1939
scalar NetworkMultiRadioIPv4.mobileHost[9].wlan[1].mac 	numRetry 	1975
scalar NetworkMultiRadioIPv4.mobileHost[9].wlan[2].mgmt 	"packets received by queue" 	2001
scalar NetworkMultiRadioIPv4.mobileHost[9].wlan[2].mgmt 	"packets dropped by queue" 	0
scalar NetworkMultiRadioIPv4.mobileHost[9].wlan[2].mac 	"Mean Frame Length" 	222
scalar NetworkMultiRadioIPv4.mobileHost[9].wlan[2].mac 	"Frame Length stddev" 	0
scalar NetworkMultiRadioIPv4.mobileHost[9].wlan[2].mac 	"Sent Throughput" 	0.16729909518186
scalar NetworkMultiRadioIPv4.mobileHost[9].wlan[2].mac 	"CW medio" 	93.007793273175
scalar NetworkMultiRadioIPv4.mobileHost[9].wlan[2].mac 	"CW max" 	1021
scalar NetworkMultiRadioIPv4.mobileHost[9].wlan[2].mac 	"CW dev" 	167.5446195167
scalar NetworkMultiRadioIPv4.mobileHost[9].wlan[2].mac 	"Mean service time" 	0.035749431651368
scalar NetworkMultiRadioIPv4.mobileHost[9].wlan[2].mac 	numSent 	1884
scalar NetworkMultiRadioIPv4.mobileHost[9].wlan[2].mac 	numSentWithoutRetry 	810
scalar NetworkMultiRadioIPv4.mobileHost[9].wlan[2].mac 	numReceived 	1195
scalar NetworkMultiRadioIPv4.mobileHost[9].wlan[2].mac 	numSelfReceived 	2000
scalar NetworkMultiRadioIPv4.mobileHost[9].wlan[2].mac 	numSentBroadcast 	-1
scalar NetworkMultiRadioIPv4.mobileHost[9].wlan[2].mac 	numReceivedBroadcast 	0
scalar NetworkMultiRadioIPv4.mobileHost[9].wlan[2].mac 	numReceivedOther 	12261
scalar NetworkMultiRadioIPv4.mobileHost[9].wlan[2].mac 	numCollision 	10919
scalar NetworkMultiRadioIPv4.mobileHost[9].wlan[2].mac 	numGivenUp 	114
scalar NetworkMultiRadioIPv4.mobileHost[9].wlan[2].mac 	numAckSend 	1195
scalar NetworkMultiRadioIPv4.mobileHost[9].wlan[2].mac 	numRetry 	3151
scalar NetworkMultiRadioIPv4.mobileHost[9].manetRouting.manetmanager.manetroutingprotocol 	"Position X" 	450
scalar NetworkMultiRadioIPv4.mobileHost[9].manetRouting.manetmanager.manetroutingprotocol 	"Position Y" 	150
scalar NetworkMultiRadioIPv4.mobileHost[9].manetRouting.manetmanager.manetroutingprotocol 	lonelyCount 	0
scalar NetworkMultiRadioIPv4.mobileHost[9].manetRouting.manetmanager.manetroutingprotocol 	noNextHopCount 	0
scalar NetworkMultiRadioIPv4.mobileHost[9].manetRouting.manetmanager.manetroutingprotocol 	"Forwarding rate" 	0.9281339031339
scalar NetworkMultiRadioIPv4.mobileHost[9].manetRouting.manetmanager.manetroutingprotocol 	Load 	1
scalar NetworkMultiRadioIPv4.mobileHost[9].manetRouting.manetmanager.manetroutingprotocol 	"Interarrival time" 	0.0035828256378152
scalar NetworkMultiRadioIPv4.mobileHost[10].udpApp[0] 	"Total send" 	926
scalar NetworkMultiRadioIPv4.mobileHost[10].udpApp[0] 	"Total received" 	195
scalar NetworkMultiRadioIPv4.mobileHost[10].udpApp[0] 	"Total deleted" 	363
scalar NetworkMultiRadioIPv4.mobileHost[10].udpApp[0] 	"Mean delay" 	0.1112075988186
scalar NetworkMultiRadioIPv4.mobileHost[10].udpApp[0] 	"Min delay" 	0.006980029049
scalar NetworkMultiRadioIPv4.mobileHost[10].udpApp[0] 	"Max delay" 	0.493057120998
scalar NetworkMultiRadioIPv4.mobileHost[10].udpApp[0] 	"Deviation delay" 	0.078744725724306
scalar NetworkMultiRadioIPv4.mobileHost[10].udpApp[0] 	"TTL29 NumOfBurstsReceived" 	1
scalar NetworkMultiRadioIPv4.mobileHost[10].udpApp[0] 	"TTL29 NumOfPacketsReceived" 	195
scalar NetworkMultiRadioIPv4.mobileHost[10].udpApp[1] 	"Total send" 	0
scalar NetworkMultiRadioIPv4.mobileHost[10].udpApp[1] 	"Total received" 	0
scalar NetworkMultiRadioIPv4.mobileHost[10].udpApp[1] 	"Total deleted" 	0
scalar NetworkMultiRadioIPv4.mobileHost[10].udpApp[1] 	"Mean delay" 	0
scalar NetworkMultiRadioIPv4.mobileHost[10].udpApp[1] 	"Min delay" 	0
scalar NetworkMultiRadioIPv4.mobileHost[10].udpApp[1] 	"Max delay" 	0
scalar NetworkMultiRadioIPv4.mobileHost[10].udpApp[1] 	"Deviation delay" 	nan
scalar NetworkMultiRadioIPv4.mobileHost[10].udpApp[2] 	"Total send" 	928
scalar NetworkMultiRadioIPv4.mobileHost[10].udpApp[2] 	"Total received" 	0
scalar NetworkMultiRadioIPv4.mobileHost[10].udpApp[2] 	"Total deleted" 	0
scalar NetworkMultiRadioIPv4.mobileHost[10].udpApp[2] 	"Mean delay" 	0
scalar NetworkMultiRadioIPv4.mobileHost[10].udpApp[2] 	"Min delay" 	0
scalar NetworkMultiRadioIPv4.mobileHost[10].udpApp[2] 	"Max delay" 	0
scalar NetworkMultiRadioIPv4.mobileHost[10].udpApp[2] 	"Deviation delay" 	nan
scalar NetworkMultiRadioIPv4.mobileHost[10].pingApp 	"Pings sent" 	0
scalar NetworkMultiRadioIPv4.mobileHost[10].wlan[0].mgmt 	"packets received by queue" 	1898
scalar NetworkMultiRadioIPv4.mobileHost[10].wlan[0].mgmt 	"packets dropped by queue" 	0
scalar NetworkMultiRadioIPv4.mobileHost[10].wlan[0].mac 	"Mean Frame Length" 	222
scalar NetworkMultiRadioIPv4.mobileHost[10].wlan[0].mac 	"Frame Length stddev" 	0
scalar NetworkMultiRadioIPv4.mobileHost[10].wlan[0].mac 	"Sent Throughput" 	0.16392469729603
scalar NetworkMultiRadioIPv4.mobileHost[10].wlan[0].mac 	"CW medio" 	80.482924482924
scalar NetworkMultiRadioIPv4.mobileHost[10].wlan[0].mac 	"CW max" 	1022
scalar NetworkMultiRadioIPv4.mobileHost[10].wlan[0].mac 	"CW dev" 	147.35782038359
scalar NetworkMultiRadioIPv4.mobileHost[10].wlan[0].mac 	"Mean service time" 	0.015774499681543
scalar NetworkMultiRadioIPv4.mobileHost[10].wlan[0].mac 	numSent 	1846
scalar NetworkMultiRadioIPv4.mobileHost[10].wlan[0].mac 	numSentWithoutRetry 	832
scalar NetworkMultiRadioIPv4.mobileHost[10].wlan[0].mac 	numReceived 	754
scalar NetworkMultiRadioIPv4.mobileHost[10].wlan[0].mac 	numSelfReceived 	1898
scalar NetworkMultiRadioIPv4.mobileHost[10].wlan[0].mac 	numSentBroadcast 	-1
scalar NetworkMultiRadioIPv4.mobileHost[10].wlan[0].mac 	numReceivedBroadcast 	0
scalar NetworkMultiRadioIPv4.mobileHost[10].wlan[0].mac 	numReceivedOther 	11942
scalar NetworkMultiRadioIPv4.mobileHost[10].wlan[0].mac 	numCollision 	11579
scalar NetworkMultiRadioIPv4.mobileHost[10].wlan[0].mac 	numGivenUp 	52
scalar NetworkMultiRadioIPv4.mobileHost[10].wlan[0].mac 	numAckSend 	754
scalar NetworkMultiRadioIPv4.mobileHost[10].wlan[0].mac 	numRetry 	2562
scalar NetworkMultiRadioIPv4.mobileHost[10].wlan[1].mgmt 	"packets received by queue" 	1676
scalar NetworkMultiRadioIPv4.mobileHost[10].wlan[1].mgmt 	"packets dropped by queue" 	0
scalar NetworkMultiRadioIPv4.mobileHost[10].wlan[1].mac 	"Mean Frame Length" 	222
scalar NetworkMultiRadioIPv4.mobileHost[10].wlan[1].mac 	"Frame Length stddev" 	0
scalar NetworkMultiRadioIPv4.mobileHost[10].wlan[1].mac 	"Sent Throughput" 	0.14723030775559
scalar NetworkMultiRadioIPv4.mobileHost[10].wlan[1].mac 	"CW medio" 	66.142422192152
scalar NetworkMultiRadioIPv4.mobileHost[10].wlan[1].mac 	"CW max" 	1018
scalar NetworkMultiRadioIPv4.mobileHost[10].wlan[1].mac 	"CW dev" 	122.82514918577
scalar NetworkMultiRadioIPv4.mobileHost[10].wlan[1].mac 	"Mean service time" 	0.0052263888265989
scalar NetworkMultiRadioIPv4.mobileHost[10].wlan[1].mac 	numSent 	1658
scalar NetworkMultiRadioIPv4.mobileHost[10].wlan[1].mac 	numSentWithoutRetry 	855
scalar NetworkMultiRadioIPv4.mobileHost[10].wlan[1].mac 	numReceived 	867
scalar NetworkMultiRadioIPv4.mobileHost[10].wlan[1].mac 	numSelfReceived 	1676
scalar NetworkMultiRadioIPv4.mobileHost[10].wlan[1].mac 	numSentBroadcast 	-1
scalar NetworkMultiRadioIPv4.mobileHost[10].wlan[1].mac 	numReceivedBroadcast 	0
scalar NetworkMultiRadioIPv4.mobileHost[10].wlan[1].mac 	numReceivedOther 	12614
scalar NetworkMultiRadioIPv4.mobileHost[10].wlan[1].mac 	numCollision 	9293
scalar NetworkMultiRadioIPv4.mobileHost[10].wlan[1].mac 	numGivenUp 	18
scalar NetworkMultiRadioIPv4.mobileHost[10].wlan[1].mac 	numAckSend 	867
scalar NetworkMultiRadioIPv4.mobileHost[10].wlan[1].mac 	numRetry 	1762
scalar NetworkMultiRadioIPv4.mobileHost[10].wlan[2].mgmt 	"packets received by queue" 	153
scalar NetworkMultiRadioIPv4.mobileHost[10].wlan[2].mgmt 	"packets dropped by queue" 	0
scalar NetworkMultiRadioIPv4.mobileHost[10].wlan[2].mac 	"Mean Frame Length" 	222
scalar NetworkMultiRadioIPv4.mobileHost[10].wlan[2].mac 	"Frame Length stddev" 	0
scalar NetworkMultiRadioIPv4.mobileHost[10].wlan[2].mac 	"Sent Throughput" 	0.013053591821515
scalar NetworkMultiRadioIPv4.mobileHost[10].wlan[2].mac 	"CW medio" 	78.146341463415
scalar NetworkMultiRadioIPv4.mobileHost[10].wlan[2].mac 	"CW max" 	847
scalar NetworkMultiRadioIPv4.mobileHost[10].wlan[2].mac 	"CW dev" 	152.61334036102
[...]
scalar NetworkMultiRadioIPv4.mobileHost[33].wlan[0].mgmt 	"packets dropped by queue" 	0
scalar NetworkMultiRadioIPv4.mobileHost[33].wlan[0].mac 	"Mean Frame Length" 	222
scalar NetworkMultiRadioIPv4.mobileHost[33].wlan[0].mac 	"Frame Length stddev" 	0
scalar NetworkMultiRadioIPv4.mobileHost[33].wlan[0].mac 	"Sent Throughput" 	0.00017759988872809
scalar NetworkMultiRadioIPv4.mobileHost[33].wlan[0].mac 	"CW medio" 	43
scalar NetworkMultiRadioIPv4.mobileHost[33].wlan[0].mac 	"CW max" 	84
scalar NetworkMultiRadioIPv4.mobileHost[33].wlan[0].mac 	"CW dev" 	26.178871888096
scalar NetworkMultiRadioIPv4.mobileHost[33].wlan[0].mac 	"Mean service time" 	0.003306609272
scalar NetworkMultiRadioIPv4.mobileHost[33].wlan[0].mac 	numSent 	2
scalar NetworkMultiRadioIPv4.mobileHost[33].wlan[0].mac 	numSentWithoutRetry 	0
scalar NetworkMultiRadioIPv4.mobileHost[33].wlan[0].mac 	numReceived 	805
scalar NetworkMultiRadioIPv4.mobileHost[33].wlan[0].mac 	numSelfReceived 	2
scalar NetworkMultiRadioIPv4.mobileHost[33].wlan[0].mac 	numSentBroadcast 	-1
scalar NetworkMultiRadioIPv4.mobileHost[33].wlan[0].mac 	numReceivedBroadcast 	0
scalar NetworkMultiRadioIPv4.mobileHost[33].wlan[0].mac 	numReceivedOther 	10680
scalar NetworkMultiRadioIPv4.mobileHost[33].wlan[0].mac 	numCollision 	11215
scalar NetworkMultiRadioIPv4.mobileHost[33].wlan[0].mac 	numGivenUp 	0
scalar NetworkMultiRadioIPv4.mobileHost[33].wlan[0].mac 	numAckSend 	805
scalar NetworkMultiRadioIPv4.mobileHost[33].wlan[0].mac 	numRetry 	6
scalar NetworkMultiRadioIPv4.mobileHost[33].wlan[1].mgmt 	"packets received by queue" 	0
scalar NetworkMultiRadioIPv4.mobileHost[33].wlan[1].mgmt 	"packets dropped by queue" 	0
scalar NetworkMultiRadioIPv4.mobileHost[33].wlan[1].mac 	"Mean Frame Length" 	0
scalar NetworkMultiRadioIPv4.mobileHost[33].wlan[1].mac 	"Frame Length stddev" 	nan
scalar NetworkMultiRadioIPv4.mobileHost[33].wlan[1].mac 	"Sent Throughput" 	0
scalar NetworkMultiRadioIPv4.mobileHost[33].wlan[1].mac 	"CW medio" 	0
scalar NetworkMultiRadioIPv4.mobileHost[33].wlan[1].mac 	"CW max" 	0
scalar NetworkMultiRadioIPv4.mobileHost[33].wlan[1].mac 	"CW dev" 	nan
scalar NetworkMultiRadioIPv4.mobileHost[33].wlan[1].mac 	"Mean service time" 	0
scalar NetworkMultiRadioIPv4.mobileHost[33].wlan[1].mac 	numSent 	0
scalar NetworkMultiRadioIPv4.mobileHost[33].wlan[1].mac 	numSentWithoutRetry 	0
scalar NetworkMultiRadioIPv4.mobileHost[33].wlan[1].mac 	numReceived 	310
scalar NetworkMultiRadioIPv4.mobileHost[33].wlan[1].mac 	numSelfReceived 	0
scalar NetworkMultiRadioIPv4.mobileHost[33].wlan[1].mac 	numSentBroadcast 	-1
scalar NetworkMultiRadioIPv4.mobileHost[33].wlan[1].mac 	numReceivedBroadcast 	0
scalar NetworkMultiRadioIPv4.mobileHost[33].wlan[1].mac 	numReceivedOther 	6302
scalar NetworkMultiRadioIPv4.mobileHost[33].wlan[1].mac 	numCollision 	5390
scalar NetworkMultiRadioIPv4.mobileHost[33].wlan[1].mac 	numGivenUp 	0
scalar NetworkMultiRadioIPv4.mobileHost[33].wlan[1].mac 	numAckSend 	310
scalar NetworkMultiRadioIPv4.mobileHost[33].wlan[1].mac 	numRetry 	0
scalar NetworkMultiRadioIPv4.mobileHost[33].wlan[2].mgmt 	"packets received by queue" 	926
scalar NetworkMultiRadioIPv4.mobileHost[33].wlan[2].mgmt 	"packets dropped by queue" 	0
scalar NetworkMultiRadioIPv4.mobileHost[33].wlan[2].mac 	"Mean Frame Length" 	222
scalar NetworkMultiRadioIPv4.mobileHost[33].wlan[2].mac 	"Frame Length stddev" 	0
scalar NetworkMultiRadioIPv4.mobileHost[33].wlan[2].mac 	"Sent Throughput" 	0.079475950205822
scalar NetworkMultiRadioIPv4.mobileHost[33].wlan[2].mac 	"CW medio" 	89.080670508119
scalar NetworkMultiRadioIPv4.mobileHost[33].wlan[2].mac 	"CW max" 	1015
scalar NetworkMultiRadioIPv4.mobileHost[33].wlan[2].mac 	"CW dev" 	155.8416548021
scalar NetworkMultiRadioIPv4.mobileHost[33].wlan[2].mac 	"Mean service time" 	0.004866139354457
scalar NetworkMultiRadioIPv4.mobileHost[33].wlan[2].mac 	numSent 	895
scalar NetworkMultiRadioIPv4.mobileHost[33].wlan[2].mac 	numSentWithoutRetry 	340
scalar NetworkMultiRadioIPv4.mobileHost[33].wlan[2].mac 	numReceived 	945
scalar NetworkMultiRadioIPv4.mobileHost[33].wlan[2].mac 	numSelfReceived 	926
scalar NetworkMultiRadioIPv4.mobileHost[33].wlan[2].mac 	numSentBroadcast 	-1
scalar NetworkMultiRadioIPv4.mobileHost[33].wlan[2].mac 	numReceivedBroadcast 	0
scalar NetworkMultiRadioIPv4.mobileHost[33].wlan[2].mac 	numReceivedOther 	7328
scalar NetworkMultiRadioIPv4.mobileHost[33].wlan[2].mac 	numCollision 	7718
scalar NetworkMultiRadioIPv4.mobileHost[33].wlan[2].mac 	numGivenUp 	31
scalar NetworkMultiRadioIPv4.mobileHost[33].wlan[2].mac 	numAckSend 	945
scalar NetworkMultiRadioIPv4.mobileHost[33].wlan[2].mac 	numRetry 	1403
scalar NetworkMultiRadioIPv4.mobileHost[33].manetRouting.manetmanager.manetroutingprotocol 	"Position X" 	450
scalar NetworkMultiRadioIPv4.mobileHost[33].manetRouting.manetmanager.manetroutingprotocol 	"Position Y" 	750
scalar NetworkMultiRadioIPv4.mobileHost[33].manetRouting.manetmanager.manetroutingprotocol 	lonelyCount 	0
scalar NetworkMultiRadioIPv4.mobileHost[33].manetRouting.manetmanager.manetroutingprotocol 	noNextHopCount 	0
scalar NetworkMultiRadioIPv4.mobileHost[33].manetRouting.manetmanager.manetroutingprotocol 	"Forwarding rate" 	0
scalar NetworkMultiRadioIPv4.mobileHost[33].manetRouting.manetmanager.manetroutingprotocol 	Load 	0.26510610804995
scalar NetworkMultiRadioIPv4.mobileHost[33].manetRouting.manetmanager.manetroutingprotocol 	"Interarrival time" 	0.020457000450435
scalar NetworkMultiRadioIPv4.mobileHost[34].udpApp[0] 	"Total send" 	929
scalar NetworkMultiRadioIPv4.mobileHost[34].udpApp[0] 	"Total received" 	691
scalar NetworkMultiRadioIPv4.mobileHost[34].udpApp[0] 	"Total deleted" 	1440
scalar NetworkMultiRadioIPv4.mobileHost[34].udpApp[0] 	"Mean delay" 	0.079508806040596
scalar NetworkMultiRadioIPv4.mobileHost[34].udpApp[0] 	"Min delay" 	0.000528707106
scalar NetworkMultiRadioIPv4.mobileHost[34].udpApp[0] 	"Max delay" 	0.393867849212
scalar NetworkMultiRadioIPv4.mobileHost[34].udpApp[0] 	"Deviation delay" 	0.064337520100023
scalar NetworkMultiRadioIPv4.mobileHost[34].udpApp[0] 	"TTL28 NumOfBurstsReceived" 	1
scalar NetworkMultiRadioIPv4.mobileHost[34].udpApp[0] 	"TTL28 NumOfPacketsReceived" 	243
scalar NetworkMultiRadioIPv4.mobileHost[34].udpApp[0] 	"TTL29 NumOfBurstsReceived" 	2
scalar NetworkMultiRadioIPv4.mobileHost[34].udpApp[0] 	"TTL29 NumOfPacketsReceived" 	448
scalar NetworkMultiRadioIPv4.mobileHost[34].udpApp[1] 	"Total send" 	926
scalar NetworkMultiRadioIPv4.mobileHost[34].udpApp[1] 	"Total received" 	0
scalar NetworkMultiRadioIPv4.mobileHost[34].udpApp[1] 	"Total deleted" 	0
scalar NetworkMultiRadioIPv4.mobileHost[34].udpApp[1] 	"Mean delay" 	0
scalar NetworkMultiRadioIPv4.mobileHost[34].udpApp[1] 	"Min delay" 	0
scalar NetworkMultiRadioIPv4.mobileHost[34].udpApp[1] 	"Max delay" 	0
scalar NetworkMultiRadioIPv4.mobileHost[34].udpApp[1] 	"Deviation delay" 	nan
scalar NetworkMultiRadioIPv4.mobileHost[34].udpApp[2] 	"Total send" 	0
scalar NetworkMultiRadioIPv4.mobileHost[34].udpApp[2] 	"Total received" 	0
scalar NetworkMultiRadioIPv4.mobileHost[34].udpApp[2] 	"Total deleted" 	0
scalar NetworkMultiRadioIPv4.mobileHost[34].udpApp[2] 	"Mean delay" 	0
scalar NetworkMultiRadioIPv4.mobileHost[34].udpApp[2] 	"Min delay" 	0
scalar NetworkMultiRadioIPv4.mobileHost[34].udpApp[2] 	"Max delay" 	0
scalar NetworkMultiRadioIPv4.mobileHost[34].udpApp[2] 	"Deviation delay" 	nan
scalar NetworkMultiRadioIPv4.mobileHost[34].pingApp 	"Pings sent" 	0
scalar NetworkMultiRadioIPv4.mobileHost[34].wlan[0].mgmt 	"packets received by queue" 	1855
scalar NetworkMultiRadioIPv4.mobileHost[34].wlan[0].mgmt 	"packets dropped by queue" 	26
scalar NetworkMultiRadioIPv4.mobileHost[34].wlan[0].mac 	"Mean Frame Length" 	222
scalar NetworkMultiRadioIPv4.mobileHost[34].wlan[0].mac 	"Frame Length stddev" 	0
scalar NetworkMultiRadioIPv4.mobileHost[34].wlan[0].mac 	"Sent Throughput" 	0.12725032027368
scalar NetworkMultiRadioIPv4.mobileHost[34].wlan[0].mac 	"CW medio" 	134.85603051009
scalar NetworkMultiRadioIPv4.mobileHost[34].wlan[0].mac 	"CW max" 	1021
scalar NetworkMultiRadioIPv4.mobileHost[34].wlan[0].mac 	"CW dev" 	211.24370443703
scalar NetworkMultiRadioIPv4.mobileHost[34].wlan[0].mac 	"Mean service time" 	0.70245235653534
scalar NetworkMultiRadioIPv4.mobileHost[34].wlan[0].mac 	numSent 	1433
scalar NetworkMultiRadioIPv4.mobileHost[34].wlan[0].mac 	numSentWithoutRetry 	420
scalar NetworkMultiRadioIPv4.mobileHost[34].wlan[0].mac 	numReceived 	813
scalar NetworkMultiRadioIPv4.mobileHost[34].wlan[0].mac 	numSelfReceived 	1733
scalar NetworkMultiRadioIPv4.mobileHost[34].wlan[0].mac 	numSentBroadcast 	-1
scalar NetworkMultiRadioIPv4.mobileHost[34].wlan[0].mac 	numReceivedBroadcast 	0
scalar NetworkMultiRadioIPv4.mobileHost[34].wlan[0].mac 	numReceivedOther 	8812
scalar NetworkMultiRadioIPv4.mobileHost[34].wlan[0].mac 	numCollision 	8720
scalar NetworkMultiRadioIPv4.mobileHost[34].wlan[0].mac 	numGivenUp 	298
scalar NetworkMultiRadioIPv4.mobileHost[34].wlan[0].mac 	numAckSend 	813
scalar NetworkMultiRadioIPv4.mobileHost[34].wlan[0].mac 	numRetry 	4587
scalar NetworkMultiRadioIPv4.mobileHost[34].wlan[1].mgmt 	"packets received by queue" 	0
scalar NetworkMultiRadioIPv4.mobileHost[34].wlan[1].mgmt 	"packets dropped by queue" 	0
scalar NetworkMultiRadioIPv4.mobileHost[34].wlan[1].mac 	"Mean Frame Length" 	0
scalar NetworkMultiRadioIPv4.mobileHost[34].wlan[1].mac 	"Frame Length stddev" 	nan
scalar NetworkMultiRadioIPv4.mobileHost[34].wlan[1].mac 	"Sent Throughput" 	0
scalar NetworkMultiRadioIPv4.mobileHost[34].wlan[1].mac 	"CW medio" 	0
scalar NetworkMultiRadioIPv4.mobileHost[34].wlan[1].mac 	"CW max" 	0
scalar NetworkMultiRadioIPv4.mobileHost[34].wlan[1].mac 	"CW dev" 	nan
scalar NetworkMultiRadioIPv4.mobileHost[34].wlan[1].mac 	"Mean service time" 	0
scalar NetworkMultiRadioIPv4.mobileHost[34].wlan[1].mac 	numSent 	0
scalar NetworkMultiRadioIPv4.mobileHost[34].wlan[1].mac 	numSentWithoutRetry 	0
scalar NetworkMultiRadioIPv4.mobileHost[34].wlan[1].mac 	numReceived 	511
scalar NetworkMultiRadioIPv4.mobileHost[34].wlan[1].mac 	numSelfReceived 	0
scalar NetworkMultiRadioIPv4.mobileHost[34].wlan[1].mac 	numSentBroadcast 	-1
scalar NetworkMultiRadioIPv4.mobileHost[34].wlan[1].mac 	numReceivedBroadcast 	0
scalar NetworkMultiRadioIPv4.mobileHost[34].wlan[1].mac 	numReceivedOther 	3250
scalar NetworkMultiRadioIPv4.mobileHost[34].wlan[1].mac 	numCollision 	3113
scalar NetworkMultiRadioIPv4.mobileHost[34].wlan[1].mac 	numGivenUp 	0
scalar NetworkMultiRadioIPv4.mobileHost[34].wlan[1].mac 	numAckSend 	511
scalar NetworkMultiRadioIPv4.mobileHost[34].wlan[1].mac 	numRetry 	0
scalar NetworkMultiRadioIPv4.mobileHost[34].wlan[2].mgmt 	"packets received by queue" 	0
scalar NetworkMultiRadioIPv4.mobileHost[34].wlan[2].mgmt 	"packets dropped by queue" 	0
scalar NetworkMultiRadioIPv4.mobileHost[34].wlan[2].mac 	"Mean Frame Length" 	0
scalar NetworkMultiRadioIPv4.mobileHost[34].wlan[2].mac 	"Frame Length stddev" 	nan
scalar NetworkMultiRadioIPv4.mobileHost[34].wlan[2].mac 	"Sent Throughput" 	0
scalar NetworkMultiRadioIPv4.mobileHost[34].wlan[2].mac 	"CW medio" 	0
scalar NetworkMultiRadioIPv4.mobileHost[34].wlan[2].mac 	"CW max" 	0
scalar NetworkMultiRadioIPv4.mobileHost[34].wlan[2].mac 	"CW dev" 	nan
scalar NetworkMultiRadioIPv4.mobileHost[34].wlan[2].mac 	"Mean service time" 	0
scalar NetworkMultiRadioIPv4.mobileHost[34].wlan[2].mac 	numSent 	0
scalar NetworkMultiRadioIPv4.mobileHost[34].wlan[2].mac 	numSentWithoutRetry 	0
scalar NetworkMultiRadioIPv4.mobileHost[34].wlan[2].mac 	numReceived 	807
scalar NetworkMultiRadioIPv4.mobileHost[34].wlan[2].mac 	numSelfReceived 	0
scalar NetworkMultiRadioIPv4.mobileHost[34].wlan[2].mac 	numSentBroadcast 	-1
scalar NetworkMultiRadioIPv4.mobileHost[34].wlan[2].mac 	numReceivedBroadcast 	0
scalar NetworkMultiRadioIPv4.mobileHost[34].wlan[2].mac 	numReceivedOther 	6269
scalar NetworkMultiRadioIPv4.mobileHost[34].wlan[2].mac 	numCollision 	6417
scalar NetworkMultiRadioIPv4.mobileHost[34].wlan[2].mac 	numGivenUp 	0
scalar NetworkMultiRadioIPv4.mobileHost[34].wlan[2].mac 	numAckSend 	807
scalar NetworkMultiRadioIPv4.mobileHost[34].wlan[2].mac 	numRetry 	0
scalar NetworkMultiRadioIPv4.mobileHost[34].manetRouting.manetmanager.manetroutingprotocol 	"Position X" 	600
scalar NetworkMultiRadioIPv4.mobileHost[34].manetRouting.manetmanager.manetroutingprotocol 	"Position Y" 	750
scalar NetworkMultiRadioIPv4.mobileHost[34].manetRouting.manetmanager.manetroutingprotocol 	lonelyCount 	0
scalar NetworkMultiRadioIPv4.mobileHost[34].manetRouting.manetmanager.manetroutingprotocol 	noNextHopCount 	0
scalar NetworkMultiRadioIPv4.mobileHost[34].manetRouting.manetmanager.manetroutingprotocol 	"Forwarding rate" 	0
scalar NetworkMultiRadioIPv4.mobileHost[34].manetRouting.manetmanager.manetroutingprotocol 	Load 	0.99949517375125
scalar NetworkMultiRadioIPv4.mobileHost[34].manetRouting.manetmanager.manetroutingprotocol 	"Interarrival time" 	0.010242057118828
scalar NetworkMultiRadioIPv4.mobileHost[35].udpApp[0] 	"Total send" 	927
scalar NetworkMultiRadioIPv4.mobileHost[35].udpApp[0] 	"Total received" 	0
scalar NetworkMultiRadioIPv4.mobileHost[35].udpApp[0] 	"Total deleted" 	0
scalar NetworkMultiRadioIPv4.mobileHost[35].udpApp[0] 	"Mean delay" 	0
scalar NetworkMultiRadioIPv4.mobileHost[35].udpApp[0] 	"Min delay" 	0
scalar NetworkMultiRadioIPv4.mobileHost[35].udpApp[0] 	"Max delay" 	0
scalar NetworkMultiRadioIPv4.mobileHost[35].udpApp[0] 	"Deviation delay" 	nan
scalar NetworkMultiRadioIPv4.mobileHost[35].udpApp[1] 	"Total send" 	929
scalar NetworkMultiRadioIPv4.mobileHost[35].udpApp[1] 	"Total received" 	0
scalar NetworkMultiRadioIPv4.mobileHost[35].udpApp[1] 	"Total deleted" 	0
scalar NetworkMultiRadioIPv4.mobileHost[35].udpApp[1] 	"Mean delay" 	0
scalar NetworkMultiRadioIPv4.mobileHost[35].udpApp[1] 	"Min delay" 	0
scalar NetworkMultiRadioIPv4.mobileHost[35].udpApp[1] 	"Max delay" 	0
scalar NetworkMultiRadioIPv4.mobileHost[35].udpApp[1] 	"Deviation delay" 	nan
scalar NetworkMultiRadioIPv4.mobileHost[35].udpApp[2] 	"Total send" 	0
scalar NetworkMultiRadioIPv4.mobileHost[35].udpApp[2] 	"Total received" 	0
scalar NetworkMultiRadioIPv4.mobileHost[35].udpApp[2] 	"Total deleted" 	0
scalar NetworkMultiRadioIPv4.mobileHost[35].udpApp[2] 	"Mean delay" 	0
scalar NetworkMultiRadioIPv4.mobileHost[35].udpApp[2] 	"Min delay" 	0
scalar NetworkMultiRadioIPv4.mobileHost[35].udpApp[2] 	"Max delay" 	0
scalar NetworkMultiRadioIPv4.mobileHost[35].udpApp[2] 	"Deviation delay" 	nan
scalar NetworkMultiRadioIPv4.mobileHost[35].pingApp 	"Pings sent" 	0
scalar NetworkMultiRadioIPv4.mobileHost[35].wlan[0].mgmt 	"packets received by queue" 	1850
scalar NetworkMultiRadioIPv4.mobileHost[35].wlan[0].mgmt 	"packets dropped by queue" 	0
scalar NetworkMultiRadioIPv4.mobileHost[35].wlan[0].mac 	"Mean Frame Length" 	222
scalar NetworkMultiRadioIPv4.mobileHost[35].wlan[0].mac 	"Frame Length stddev" 	0
scalar NetworkMultiRadioIPv4.mobileHost[35].wlan[0].mac 	"Sent Throughput" 	0.1333775164348
scalar NetworkMultiRadioIPv4.mobileHost[35].wlan[0].mac 	"CW medio" 	136.42376583661
scalar NetworkMultiRadioIPv4.mobileHost[35].wlan[0].mac 	"CW max" 	1023
scalar NetworkMultiRadioIPv4.mobileHost[35].wlan[0].mac 	"CW dev" 	209.85948402551
scalar NetworkMultiRadioIPv4.mobileHost[35].wlan[0].mac 	"Mean service time" 	0.062828429986524
scalar NetworkMultiRadioIPv4.mobileHost[35].wlan[0].mac 	numSent 	1502
scalar NetworkMultiRadioIPv4.mobileHost[35].wlan[0].mac 	numSentWithoutRetry 	407
scalar NetworkMultiRadioIPv4.mobileHost[35].wlan[0].mac 	numReceived 	0
scalar NetworkMultiRadioIPv4.mobileHost[35].wlan[0].mac 	numSelfReceived 	1846
scalar NetworkMultiRadioIPv4.mobileHost[35].wlan[0].mac 	numSentBroadcast 	-1
scalar NetworkMultiRadioIPv4.mobileHost[35].wlan[0].mac 	numReceivedBroadcast 	0
scalar NetworkMultiRadioIPv4.mobileHost[35].wlan[0].mac 	numReceivedOther 	6254
scalar NetworkMultiRadioIPv4.mobileHost[35].wlan[0].mac 	numCollision 	5956
scalar NetworkMultiRadioIPv4.mobileHost[35].wlan[0].mac 	numGivenUp 	342
scalar NetworkMultiRadioIPv4.mobileHost[35].wlan[0].mac 	numAckSend 	0
scalar NetworkMultiRadioIPv4.mobileHost[35].wlan[0].mac 	numRetry 	5155
scalar NetworkMultiRadioIPv4.mobileHost[35].wlan[1].mgmt 	"packets received by queue" 	0
scalar NetworkMultiRadioIPv4.mobileHost[35].wlan[1].mgmt 	"packets dropped by queue" 	0
scalar NetworkMultiRadioIPv4.mobileHost[35].wlan[1].mac 	"Mean Frame Length" 	0
scalar NetworkMultiRadioIPv4.mobileHost[35].wlan[1].mac 	"Frame Length stddev" 	nan
scalar NetworkMultiRadioIPv4.mobileHost[35].wlan[1].mac 	"Sent Throughput" 	0
scalar NetworkMultiRadioIPv4.mobileHost[35].wlan[1].mac 	"CW medio" 	0
scalar NetworkMultiRadioIPv4.mobileHost[35].wlan[1].mac 	"CW max" 	0
scalar NetworkMultiRadioIPv4.mobileHost[35].wlan[1].mac 	"CW dev" 	nan
scalar NetworkMultiRadioIPv4.mobileHost[35].wlan[1].mac 	"Mean service time" 	0
scalar NetworkMultiRadioIPv4.mobileHost[35].wlan[1].mac 	numSent 	0
scalar NetworkMultiRadioIPv4.mobileHost[35].wlan[1].mac 	numSentWithoutRetry 	0
scalar NetworkMultiRadioIPv4.mobileHost[35].wlan[1].mac 	numReceived 	0
scalar NetworkMultiRadioIPv4.mobileHost[35].wlan[1].mac 	numSelfReceived 	0
scalar NetworkMultiRadioIPv4.mobileHost[35].wlan[1].mac 	numSentBroadcast 	-1
scalar NetworkMultiRadioIPv4.mobileHost[35].wlan[1].mac 	numReceivedBroadcast 	0
scalar NetworkMultiRadioIPv4.mobileHost[35].wlan[1].mac 	numReceivedOther 	2683
scalar NetworkMultiRadioIPv4.mobileHost[35].wlan[1].mac 	numCollision 	2394
scalar NetworkMultiRadioIPv4.mobileHost[35].wlan[1].mac 	numGivenUp 	0
scalar NetworkMultiRadioIPv4.mobileHost[35].wlan[1].mac 	numAckSend 	0
scalar NetworkMultiRadioIPv4.mobileHost[35].wlan[1].mac 	numRetry 	0
scalar NetworkMultiRadioIPv4.mobileHost[35].wlan[2].mgmt 	"packets received by queue" 	0
scalar NetworkMultiRadioIPv4.mobileHost[35].wlan[2].mgmt 	"packets dropped by queue" 	0
scalar NetworkMultiRadioIPv4.mobileHost[35].wlan[2].mac 	"Mean Frame Length" 	0
scalar NetworkMultiRadioIPv4.mobileHost[35].wlan[2].mac 	"Frame Length stddev" 	nan
scalar NetworkMultiRadioIPv4.mobileHost[35].wlan[2].mac 	"Sent Throughput" 	0
scalar NetworkMultiRadioIPv4.mobileHost[35].wlan[2].mac 	"CW medio" 	0
scalar NetworkMultiRadioIPv4.mobileHost[35].wlan[2].mac 	"CW max" 	0
scalar NetworkMultiRadioIPv4.mobileHost[35].wlan[2].mac 	"CW dev" 	nan
scalar NetworkMultiRadioIPv4.mobileHost[35].wlan[2].mac 	"Mean service time" 	0
scalar NetworkMultiRadioIPv4.mobileHost[35].wlan[2].mac 	numSent 	0
scalar NetworkMultiRadioIPv4.mobileHost[35].wlan[2].mac 	numSentWithoutRetry 	0
scalar NetworkMultiRadioIPv4.mobileHost[35].wlan[2].mac 	numReceived 	0
scalar NetworkMultiRadioIPv4.mobileHost[35].wlan[2].mac 	numSelfReceived 	0
scalar NetworkMultiRadioIPv4.mobileHost[35].wlan[2].mac 	numSentBroadcast 	-1
scalar NetworkMultiRadioIPv4.mobileHost[35].wlan[2].mac 	numReceivedBroadcast 	0
scalar NetworkMultiRadioIPv4.mobileHost[35].wlan[2].mac 	numReceivedOther 	3101
scalar NetworkMultiRadioIPv4.mobileHost[35].wlan[2].mac 	numCollision 	2859
scalar NetworkMultiRadioIPv4.mobileHost[35].wlan[2].mac 	numGivenUp 	0
scalar NetworkMultiRadioIPv4.mobileHost[35].wlan[2].mac 	numAckSend 	0
scalar NetworkMultiRadioIPv4.mobileHost[35].wlan[2].mac 	numRetry 	0
scalar NetworkMultiRadioIPv4.mobileHost[35].manetRouting.manetmanager.manetroutingprotocol 	"Position X" 	750
scalar NetworkMultiRadioIPv4.mobileHost[35].manetRouting.manetmanager.manetroutingprotocol 	"Position Y" 	750
scalar NetworkMultiRadioIPv4.mobileHost[35].manetRouting.manetmanager.manetroutingprotocol 	lonelyCount 	0
scalar NetworkMultiRadioIPv4.mobileHost[35].manetRouting.manetmanager.manetroutingprotocol 	noNextHopCount 	0
scalar NetworkMultiRadioIPv4.mobileHost[35].manetRouting.manetmanager.manetroutingprotocol 	"Forwarding rate" 	0
scalar NetworkMultiRadioIPv4.mobileHost[35].manetRouting.manetmanager.manetroutingprotocol 	Load 	0
scalar NetworkMultiRadioIPv4.mobileHost[35].manetRouting.manetmanager.manetroutingprotocol 	"Interarrival time" 	0.010268037370829
