version 2
run ramenLin-14-20100509-13:28:57-8160
attr configname ramenLin
attr datetime 20100509-13:28:57
attr experiment ramenLin
attr inifile omnetpp.ini
attr iterationvars "$numudpapp=3, $sp=80, $msgfreq=0.02"
attr iterationvars2 "$numudpapp=3, $sp=80, $msgfreq=0.02, $repetition=2"
attr measurement "$numudpapp=3, $sp=80, $msgfreq=0.02"
attr msgfreq 0.02
attr network NetworkMultiRadioIPv4
attr numudpapp 3
attr processid 8160
attr repetition 2
attr replication #2
attr resultdir results
attr runnumber 14
attr seedset 14
attr sp 80

scalar . 	msgfreq 	0.02
scalar . 	numudpapp 	3
scalar . 	sp 	80
scalar NetworkMultiRadioIPv4.mobileHost[0].udpApp[0] 	"Total send" 	927
scalar NetworkMultiRadioIPv4.mobileHost[0].udpApp[0] 	"Total received" 	1046
scalar NetworkMultiRadioIPv4.mobileHost[0].udpApp[0] 	"Total deleted" 	1029
scalar NetworkMultiRadioIPv4.mobileHost[0].udpApp[0] 	"Mean delay" 	0.14835643958569
scalar NetworkMultiRadioIPv4.mobileHost[0].udpApp[0] 	"Min delay" 	9.05e-05
scalar NetworkMultiRadioIPv4.mobileHost[0].udpApp[0] 	"Max delay" 	2.187820532294
scalar NetworkMultiRadioIPv4.mobileHost[0].udpApp[0] 	"Deviation delay" 	0.32060612604225
scalar NetworkMultiRadioIPv4.mobileHost[0].udpApp[0] 	"TTL27 NumOfBurstsReceived" 	2
scalar NetworkMultiRadioIPv4.mobileHost[0].udpApp[0] 	"TTL27 NumOfPacketsReceived" 	158
scalar NetworkMultiRadioIPv4.mobileHost[0].udpApp[0] 	"TTL29 NumOfBurstsReceived" 	1
scalar NetworkMultiRadioIPv4.mobileHost[0].udpApp[0] 	"TTL29 NumOfPacketsReceived" 	141
scalar NetworkMultiRadioIPv4.mobileHost[0].udpApp[0] 	"TTL31 NumOfBurstsReceived" 	1
scalar NetworkMultiRadioIPv4.mobileHost[0].udpApp[0] 	"TTL31 NumOfPacketsReceived" 	747
scalar NetworkMultiRadioIPv4.mobileHost[0].udpApp[1] 	"Total send" 	927
scalar NetworkMultiRadioIPv4.mobileHost[0].udpApp[1] 	"Total received" 	0
scalar NetworkMultiRadioIPv4.mobileHost[0].udpApp[1] 	"Total deleted" 	0
scalar NetworkMultiRadioIPv4.mobileHost[0].udpApp[1] 	"Mean delay" 	0
scalar NetworkMultiRadioIPv4.mobileHost[0].udpApp[1] 	"Min delay" 	0
scalar NetworkMultiRadioIPv4.mobileHost[0].udpApp[1] 	"Max delay" 	0
scalar NetworkMultiRadioIPv4.mobileHost[0].udpApp[1] 	"Deviation delay" 	nan
scalar NetworkMultiRadioIPv4.mobileHost[0].udpApp[2] 	"Total send" 	927
scalar NetworkMultiRadioIPv4.mobileHost[0].udpApp[2] 	"Total received" 	0
scalar NetworkMultiRadioIPv4.mobileHost[0].udpApp[2] 	"Total deleted" 	0
scalar NetworkMultiRadioIPv4.mobileHost[0].udpApp[2] 	"Mean delay" 	0
scalar NetworkMultiRadioIPv4.mobileHost[0].udpApp[2] 	"Min delay" 	0
scalar NetworkMultiRadioIPv4.mobileHost[0].udpApp[2] 	"Max delay" 	0
scalar NetworkMultiRadioIPv4.mobileHost[0].udpApp[2] 	"Deviation delay" 	nan
scalar NetworkMultiRadioIPv4.mobileHost[0].pingApp 	"Pings sent" 	0
scalar NetworkMultiRadioIPv4.mobileHost[0].wlan[0].mgmt 	"packets received by queue" 	74
scalar NetworkMultiRadioIPv4.mobileHost[0].wlan[0].mgmt 	"packets dropped by queue" 	0
scalar NetworkMultiRadioIPv4.mobileHost[0].wlan[0].mac 	"Mean Frame Length" 	222
scalar NetworkMultiRadioIPv4.mobileHost[0].wlan[0].mac 	"Frame Length stddev" 	0
scalar NetworkMultiRadioIPv4.mobileHost[0].wlan[0].mac 	"Sent Throughput" 	0.0038183955713206
scalar NetworkMultiRadioIPv4.mobileHost[0].wlan[0].mac 	"CW medio" 	133.14473684211
scalar NetworkMultiRadioIPv4.mobileHost[0].wlan[0].mac 	"CW max" 	991
scalar NetworkMultiRadioIPv4.mobileHost[0].wlan[0].mac 	"CW dev" 	201.49400384258
scalar NetworkMultiRadioIPv4.mobileHost[0].wlan[0].mac 	"Mean service time" 	0.023912753870651
scalar NetworkMultiRadioIPv4.mobileHost[0].wlan[0].mac 	numSent 	43
scalar NetworkMultiRadioIPv4.mobileHost[0].wlan[0].mac 	numSentWithoutRetry 	14
scalar NetworkMultiRadioIPv4.mobileHost[0].wlan[0].mac 	numReceived 	1294
scalar NetworkMultiRadioIPv4.mobileHost[0].wlan[0].mac 	numSelfReceived 	74
scalar NetworkMultiRadioIPv4.mobileHost[0].wlan[0].mac 	numSentBroadcast 	18
scalar NetworkMultiRadioIPv4.mobileHost[0].wlan[0].mac 	numReceivedBroadcast 	0
scalar NetworkMultiRadioIPv4.mobileHost[0].wlan[0].mac 	numReceivedOther 	2661
scalar NetworkMultiRadioIPv4.mobileHost[0].wlan[0].mac 	numCollision 	7437
scalar NetworkMultiRadioIPv4.mobileHost[0].wlan[0].mac 	numGivenUp 	12
scalar NetworkMultiRadioIPv4.mobileHost[0].wlan[0].mac 	numAckSend 	1294
scalar NetworkMultiRadioIPv4.mobileHost[0].wlan[0].mac 	numRetry 	158
scalar NetworkMultiRadioIPv4.mobileHost[0].wlan[1].mgmt 	"packets received by queue" 	2700
scalar NetworkMultiRadioIPv4.mobileHost[0].wlan[1].mgmt 	"packets dropped by queue" 	116
scalar NetworkMultiRadioIPv4.mobileHost[0].wlan[1].mac 	"Mean Frame Length" 	222
scalar NetworkMultiRadioIPv4.mobileHost[0].wlan[1].mac 	"Frame Length stddev" 	0
scalar NetworkMultiRadioIPv4.mobileHost[0].wlan[1].mac 	"Sent Throughput" 	0.19198537733012
scalar NetworkMultiRadioIPv4.mobileHost[0].wlan[1].mac 	"CW medio" 	121.36162005786
scalar NetworkMultiRadioIPv4.mobileHost[0].wlan[1].mac 	"CW max" 	1023
scalar NetworkMultiRadioIPv4.mobileHost[0].wlan[1].mac 	"CW dev" 	200.27576923331
scalar NetworkMultiRadioIPv4.mobileHost[0].wlan[1].mac 	"Mean service time" 	0.56256371010689
scalar NetworkMultiRadioIPv4.mobileHost[0].wlan[1].mac 	numSent 	2162
scalar NetworkMultiRadioIPv4.mobileHost[0].wlan[1].mac 	numSentWithoutRetry 	716
scalar NetworkMultiRadioIPv4.mobileHost[0].wlan[1].mac 	numReceived 	745
scalar NetworkMultiRadioIPv4.mobileHost[0].wlan[1].mac 	numSelfReceived 	2513
scalar NetworkMultiRadioIPv4.mobileHost[0].wlan[1].mac 	numSentBroadcast 	16
scalar NetworkMultiRadioIPv4.mobileHost[0].wlan[1].mac 	numReceivedBroadcast 	1
scalar NetworkMultiRadioIPv4.mobileHost[0].wlan[1].mac 	numReceivedOther 	5828
scalar NetworkMultiRadioIPv4.mobileHost[0].wlan[1].mac 	numCollision 	6346
scalar NetworkMultiRadioIPv4.mobileHost[0].wlan[1].mac 	numGivenUp 	332
scalar NetworkMultiRadioIPv4.mobileHost[0].wlan[1].mac 	numAckSend 	745
scalar NetworkMultiRadioIPv4.mobileHost[0].wlan[1].mac 	numRetry 	5803
scalar NetworkMultiRadioIPv4.mobileHost[0].wlan[2].mgmt 	"packets received by queue" 	64
scalar NetworkMultiRadioIPv4.mobileHost[0].wlan[2].mgmt 	"packets dropped by queue" 	0
scalar NetworkMultiRadioIPv4.mobileHost[0].wlan[2].mac 	"Mean Frame Length" 	222
scalar NetworkMultiRadioIPv4.mobileHost[0].wlan[2].mac 	"Frame Length stddev" 	0
scalar NetworkMultiRadioIPv4.mobileHost[0].wlan[2].mac 	"Sent Throughput" 	0.0031079963952609
scalar NetworkMultiRadioIPv4.mobileHost[0].wlan[2].mac 	"CW medio" 	133.85142857143
scalar NetworkMultiRadioIPv4.mobileHost[0].wlan[2].mac 	"CW max" 	920
scalar NetworkMultiRadioIPv4.mobileHost[0].wlan[2].mac 	"CW dev" 	190.49666086226
scalar NetworkMultiRadioIPv4.mobileHost[0].wlan[2].mac 	"Mean service time" 	0.017273152413029
scalar NetworkMultiRadioIPv4.mobileHost[0].wlan[2].mac 	numSent 	35
scalar NetworkMultiRadioIPv4.mobileHost[0].wlan[2].mac 	numSentWithoutRetry 	8
scalar NetworkMultiRadioIPv4.mobileHost[0].wlan[2].mac 	numReceived 	36
scalar NetworkMultiRadioIPv4.mobileHost[0].wlan[2].mac 	numSelfReceived 	64
scalar NetworkMultiRadioIPv4.mobileHost[0].wlan[2].mac 	numSentBroadcast 	18
scalar NetworkMultiRadioIPv4.mobileHost[0].wlan[2].mac 	numReceivedBroadcast 	0
scalar NetworkMultiRadioIPv4.mobileHost[0].wlan[2].mac 	numReceivedOther 	3606
scalar NetworkMultiRadioIPv4.mobileHost[0].wlan[2].mac 	numCollision 	5635
scalar NetworkMultiRadioIPv4.mobileHost[0].wlan[2].mac 	numGivenUp 	10
scalar NetworkMultiRadioIPv4.mobileHost[0].wlan[2].mac 	numAckSend 	36
scalar NetworkMultiRadioIPv4.mobileHost[0].wlan[2].mac 	numRetry 	131
scalar NetworkMultiRadioIPv4.mobileHost[0].manetRouting.manetmanager.manetroutingprotocol 	"Position X" 	0
scalar NetworkMultiRadioIPv4.mobileHost[0].manetRouting.manetmanager.manetroutingprotocol 	"Position Y" 	0
scalar NetworkMultiRadioIPv4.mobileHost[0].manetRouting.manetmanager.manetroutingprotocol 	lonelyCount 	0
scalar NetworkMultiRadioIPv4.mobileHost[0].manetRouting.manetmanager.manetroutingprotocol 	noNextHopCount 	0
scalar NetworkMultiRadioIPv4.mobileHost[1].udpApp[0] 	"Total send" 	927
scalar NetworkMultiRadioIPv4.mobileHost[1].udpApp[0] 	"Total received" 	0
scalar NetworkMultiRadioIPv4.mobileHost[1].udpApp[0] 	"Total deleted" 	0
scalar NetworkMultiRadioIPv4.mobileHost[1].udpApp[0] 	"Mean delay" 	0
scalar NetworkMultiRadioIPv4.mobileHost[1].udpApp[0] 	"Min delay" 	0
scalar NetworkMultiRadioIPv4.mobileHost[1].udpApp[0] 	"Max delay" 	0
scalar NetworkMultiRadioIPv4.mobileHost[1].udpApp[0] 	"Deviation delay" 	nan
scalar NetworkMultiRadioIPv4.mobileHost[1].udpApp[1] 	"Total send" 	927
scalar NetworkMultiRadioIPv4.mobileHost[1].udpApp[1] 	"Total received" 	0
scalar NetworkMultiRadioIPv4.mobileHost[1].udpApp[1] 	"Total deleted" 	0
scalar NetworkMultiRadioIPv4.mobileHost[1].udpApp[1] 	"Mean delay" 	0
scalar NetworkMultiRadioIPv4.mobileHost[1].udpApp[1] 	"Min delay" 	0
scalar NetworkMultiRadioIPv4.mobileHost[1].udpApp[1] 	"Max delay" 	0
scalar NetworkMultiRadioIPv4.mobileHost[1].udpApp[1] 	"Deviation delay" 	nan
scalar NetworkMultiRadioIPv4.mobileHost[1].udpApp[2] 	"Total send" 	928
scalar NetworkMultiRadioIPv4.mobileHost[1].udpApp[2] 	"Total received" 	0
scalar NetworkMultiRadioIPv4.mobileHost[1].udpApp[2] 	"Total deleted" 	0
scalar NetworkMultiRadioIPv4.mobileHost[1].udpApp[2] 	"Mean delay" 	0
scalar NetworkMultiRadioIPv4.mobileHost[1].udpApp[2] 	"Min delay" 	0
scalar NetworkMultiRadioIPv4.mobileHost[1].udpApp[2] 	"Max delay" 	0
scalar NetworkMultiRadioIPv4.mobileHost[1].udpApp[2] 	"Deviation delay" 	nan
scalar NetworkMultiRadioIPv4.mobileHost[1].pingApp 	"Pings sent" 	0
scalar NetworkMultiRadioIPv4.mobileHost[1].wlan[0].mgmt 	"packets received by queue" 	83
scalar NetworkMultiRadioIPv4.mobileHost[1].wlan[0].mgmt 	"packets dropped by queue" 	0
scalar NetworkMultiRadioIPv4.mobileHost[1].wlan[0].mac 	"Mean Frame Length" 	222
scalar NetworkMultiRadioIPv4.mobileHost[1].wlan[0].mac 	"Frame Length stddev" 	0
scalar NetworkMultiRadioIPv4.mobileHost[1].wlan[0].mac 	"Sent Throughput" 	0.0046175946443877
scalar NetworkMultiRadioIPv4.mobileHost[1].wlan[0].mac 	"CW medio" 	121.76595744681
scalar NetworkMultiRadioIPv4.mobileHost[1].wlan[0].mac 	"CW max" 	960
scalar NetworkMultiRadioIPv4.mobileHost[1].wlan[0].mac 	"CW dev" 	196.30201012224
scalar NetworkMultiRadioIPv4.mobileHost[1].wlan[0].mac 	"Mean service time" 	0.028809853183
scalar NetworkMultiRadioIPv4.mobileHost[1].wlan[0].mac 	numSent 	52
scalar NetworkMultiRadioIPv4.mobileHost[1].wlan[0].mac 	numSentWithoutRetry 	20
scalar NetworkMultiRadioIPv4.mobileHost[1].wlan[0].mac 	numReceived 	0
scalar NetworkMultiRadioIPv4.mobileHost[1].wlan[0].mac 	numSelfReceived 	83
scalar NetworkMultiRadioIPv4.mobileHost[1].wlan[0].mac 	numSentBroadcast 	18
scalar NetworkMultiRadioIPv4.mobileHost[1].wlan[0].mac 	numReceivedBroadcast 	0
scalar NetworkMultiRadioIPv4.mobileHost[1].wlan[0].mac 	numReceivedOther 	7854
scalar NetworkMultiRadioIPv4.mobileHost[1].wlan[0].mac 	numCollision 	10344
scalar NetworkMultiRadioIPv4.mobileHost[1].wlan[0].mac 	numGivenUp 	12
scalar NetworkMultiRadioIPv4.mobileHost[1].wlan[0].mac 	numAckSend 	0
scalar NetworkMultiRadioIPv4.mobileHost[1].wlan[0].mac 	numRetry 	154
scalar NetworkMultiRadioIPv4.mobileHost[1].wlan[1].mgmt 	"packets received by queue" 	2200
scalar NetworkMultiRadioIPv4.mobileHost[1].wlan[1].mgmt 	"packets dropped by queue" 	252
scalar NetworkMultiRadioIPv4.mobileHost[1].wlan[1].mac 	"Mean Frame Length" 	222
scalar NetworkMultiRadioIPv4.mobileHost[1].wlan[1].mac 	"Frame Length stddev" 	0
scalar NetworkMultiRadioIPv4.mobileHost[1].wlan[1].mac 	"Sent Throughput" 	0.14092543655083
scalar NetworkMultiRadioIPv4.mobileHost[1].wlan[1].mac 	"CW medio" 	121.07048887445
scalar NetworkMultiRadioIPv4.mobileHost[1].wlan[1].mac 	"CW max" 	1020
scalar NetworkMultiRadioIPv4.mobileHost[1].wlan[1].mac 	"CW dev" 	198.27841369777
scalar NetworkMultiRadioIPv4.mobileHost[1].wlan[1].mac 	"Mean service time" 	0.79191963154298
scalar NetworkMultiRadioIPv4.mobileHost[1].wlan[1].mac 	numSent 	1587
scalar NetworkMultiRadioIPv4.mobileHost[1].wlan[1].mac 	numSentWithoutRetry 	516
scalar NetworkMultiRadioIPv4.mobileHost[1].wlan[1].mac 	numReceived 	0
scalar NetworkMultiRadioIPv4.mobileHost[1].wlan[1].mac 	numSelfReceived 	1866
scalar NetworkMultiRadioIPv4.mobileHost[1].wlan[1].mac 	numSentBroadcast 	16
scalar NetworkMultiRadioIPv4.mobileHost[1].wlan[1].mac 	numReceivedBroadcast 	0
scalar NetworkMultiRadioIPv4.mobileHost[1].wlan[1].mac 	numReceivedOther 	10809
scalar NetworkMultiRadioIPv4.mobileHost[1].wlan[1].mac 	numCollision 	10239
scalar NetworkMultiRadioIPv4.mobileHost[1].wlan[1].mac 	numGivenUp 	260
scalar NetworkMultiRadioIPv4.mobileHost[1].wlan[1].mac 	numAckSend 	0
scalar NetworkMultiRadioIPv4.mobileHost[1].wlan[1].mac 	numRetry 	4306
scalar NetworkMultiRadioIPv4.mobileHost[1].wlan[2].mgmt 	"packets received by queue" 	535
scalar NetworkMultiRadioIPv4.mobileHost[1].wlan[2].mgmt 	"packets dropped by queue" 	0
scalar NetworkMultiRadioIPv4.mobileHost[1].wlan[2].mac 	"Mean Frame Length" 	222
scalar NetworkMultiRadioIPv4.mobileHost[1].wlan[2].mac 	"Frame Length stddev" 	0
scalar NetworkMultiRadioIPv4.mobileHost[1].wlan[2].mac 	"Sent Throughput" 	0.038539155301236
scalar NetworkMultiRadioIPv4.mobileHost[1].wlan[2].mac 	"CW medio" 	134.68268090154
scalar NetworkMultiRadioIPv4.mobileHost[1].wlan[2].mac 	"CW max" 	1021
scalar NetworkMultiRadioIPv4.mobileHost[1].wlan[2].mac 	"CW dev" 	201.10695035301
scalar NetworkMultiRadioIPv4.mobileHost[1].wlan[2].mac 	"Mean service time" 	0.0097803583208318
scalar NetworkMultiRadioIPv4.mobileHost[1].wlan[2].mac 	numSent 	434
scalar NetworkMultiRadioIPv4.mobileHost[1].wlan[2].mac 	numSentWithoutRetry 	122
scalar NetworkMultiRadioIPv4.mobileHost[1].wlan[2].mac 	numReceived 	0
scalar NetworkMultiRadioIPv4.mobileHost[1].wlan[2].mac 	numSelfReceived 	535
scalar NetworkMultiRadioIPv4.mobileHost[1].wlan[2].mac 	numSentBroadcast 	18
scalar NetworkMultiRadioIPv4.mobileHost[1].wlan[2].mac 	numReceivedBroadcast 	0
scalar NetworkMultiRadioIPv4.mobileHost[1].wlan[2].mac 	numReceivedOther 	6685
scalar NetworkMultiRadioIPv4.mobileHost[1].wlan[2].mac 	numCollision 	7415
scalar NetworkMultiRadioIPv4.mobileHost[1].wlan[2].mac 	numGivenUp 	81
scalar NetworkMultiRadioIPv4.mobileHost[1].wlan[2].mac 	numAckSend 	0
scalar NetworkMultiRadioIPv4.mobileHost[1].wlan[2].mac 	numRetry 	1353
scalar NetworkMultiRadioIPv4.mobileHost[1].manetRouting.manetmanager.manetroutingprotocol 	"Position X" 	150
scalar NetworkMultiRadioIPv4.mobileHost[1].manetRouting.manetmanager.manetroutingprotocol 	"Position Y" 	0
scalar NetworkMultiRadioIPv4.mobileHost[1].manetRouting.manetmanager.manetroutingprotocol 	lonelyCount 	0
scalar NetworkMultiRadioIPv4.mobileHost[1].manetRouting.manetmanager.manetroutingprotocol 	noNextHopCount 	0
scalar NetworkMultiRadioIPv4.mobileHost[2].udpApp[0] 	"Total send" 	0
scalar NetworkMultiRadioIPv4.mobileHost[2].udpApp[0] 	"Total received" 	64
scalar NetworkMultiRadioIPv4.mobileHost[2].udpApp[0] 	"Total deleted" 	189
scalar NetworkMultiRadioIPv4.mobileHost[2].udpApp[0] 	"Mean delay" 	1.047581296909
scalar NetworkMultiRadioIPv4.mobileHost[2].udpApp[0] 	"Min delay" 	0.001099180718
scalar NetworkMultiRadioIPv4.mobileHost[2].udpApp[0] 	"Max delay" 	2.651662509812
scalar NetworkMultiRadioIPv4.mobileHost[2].udpApp[0] 	"Deviation delay" 	0.65758382381044
scalar NetworkMultiRadioIPv4.mobileHost[2].udpApp[0] 	"TTL30 NumOfBurstsReceived" 	1
scalar NetworkMultiRadioIPv4.mobileHost[2].udpApp[0] 	"TTL30 NumOfPacketsReceived" 	64
scalar NetworkMultiRadioIPv4.mobileHost[2].udpApp[1] 	"Total send" 	928
scalar NetworkMultiRadioIPv4.mobileHost[2].udpApp[1] 	"Total received" 	0
scalar NetworkMultiRadioIPv4.mobileHost[2].udpApp[1] 	"Total deleted" 	0
scalar NetworkMultiRadioIPv4.mobileHost[2].udpApp[1] 	"Mean delay" 	0
scalar NetworkMultiRadioIPv4.mobileHost[2].udpApp[1] 	"Min delay" 	0
scalar NetworkMultiRadioIPv4.mobileHost[2].udpApp[1] 	"Max delay" 	0
scalar NetworkMultiRadioIPv4.mobileHost[2].udpApp[1] 	"Deviation delay" 	nan
scalar NetworkMultiRadioIPv4.mobileHost[2].udpApp[2] 	"Total send" 	0
scalar NetworkMultiRadioIPv4.mobileHost[2].udpApp[2] 	"Total received" 	0
scalar NetworkMultiRadioIPv4.mobileHost[2].udpApp[2] 	"Total deleted" 	0
scalar NetworkMultiRadioIPv4.mobileHost[2].udpApp[2] 	"Mean delay" 	0
scalar NetworkMultiRadioIPv4.mobileHost[2].udpApp[2] 	"Min delay" 	0
scalar NetworkMultiRadioIPv4.mobileHost[2].udpApp[2] 	"Max delay" 	0
scalar NetworkMultiRadioIPv4.mobileHost[2].udpApp[2] 	"Deviation delay" 	nan
scalar NetworkMultiRadioIPv4.mobileHost[2].pingApp 	"Pings sent" 	0
scalar NetworkMultiRadioIPv4.mobileHost[2].wlan[0].mgmt 	"packets received by queue" 	914
scalar NetworkMultiRadioIPv4.mobileHost[2].wlan[0].mgmt 	"packets dropped by queue" 	0
scalar NetworkMultiRadioIPv4.mobileHost[2].wlan[0].mac 	"Mean Frame Length" 	222
scalar NetworkMultiRadioIPv4.mobileHost[2].wlan[0].mac 	"Frame Length stddev" 	0
scalar NetworkMultiRadioIPv4.mobileHost[2].wlan[0].mac 	"Sent Throughput" 	0.076279111529404
scalar NetworkMultiRadioIPv4.mobileHost[2].wlan[0].mac 	"CW medio" 	90.933787731256
scalar NetworkMultiRadioIPv4.mobileHost[2].wlan[0].mac 	"CW max" 	1018
scalar NetworkMultiRadioIPv4.mobileHost[2].wlan[0].mac 	"CW dev" 	160.52028624664
scalar NetworkMultiRadioIPv4.mobileHost[2].wlan[0].mac 	"Mean service time" 	0.0077371597172247
scalar NetworkMultiRadioIPv4.mobileHost[2].wlan[0].mac 	numSent 	859
scalar NetworkMultiRadioIPv4.mobileHost[2].wlan[0].mac 	numSentWithoutRetry 	332
scalar NetworkMultiRadioIPv4.mobileHost[2].wlan[0].mac 	numReceived 	59
scalar NetworkMultiRadioIPv4.mobileHost[2].wlan[0].mac 	numSelfReceived 	914
scalar NetworkMultiRadioIPv4.mobileHost[2].wlan[0].mac 	numSentBroadcast 	19
scalar NetworkMultiRadioIPv4.mobileHost[2].wlan[0].mac 	numReceivedBroadcast 	0
scalar NetworkMultiRadioIPv4.mobileHost[2].wlan[0].mac 	numReceivedOther 	8307
scalar NetworkMultiRadioIPv4.mobileHost[2].wlan[0].mac 	numCollision 	11305
scalar NetworkMultiRadioIPv4.mobileHost[2].wlan[0].mac 	numGivenUp 	35
scalar NetworkMultiRadioIPv4.mobileHost[2].wlan[0].mac 	numAckSend 	59
scalar NetworkMultiRadioIPv4.mobileHost[2].wlan[0].mac 	numRetry 	1405
scalar NetworkMultiRadioIPv4.mobileHost[2].wlan[1].mgmt 	"packets received by queue" 	40
scalar NetworkMultiRadioIPv4.mobileHost[2].wlan[1].mgmt 	"packets dropped by queue" 	0
scalar NetworkMultiRadioIPv4.mobileHost[2].wlan[1].mac 	"Mean Frame Length" 	222
scalar NetworkMultiRadioIPv4.mobileHost[2].wlan[1].mac 	"Frame Length stddev" 	0
scalar NetworkMultiRadioIPv4.mobileHost[2].wlan[1].mac 	"Sent Throughput" 	0.0015095982491267
scalar NetworkMultiRadioIPv4.mobileHost[2].wlan[1].mac 	"CW medio" 	100.98913043478
scalar NetworkMultiRadioIPv4.mobileHost[2].wlan[1].mac 	"CW max" 	878
scalar NetworkMultiRadioIPv4.mobileHost[2].wlan[1].mac 	"CW dev" 	184.99453479098
scalar NetworkMultiRadioIPv4.mobileHost[2].wlan[1].mac 	"Mean service time" 	0.0097733196214706
scalar NetworkMultiRadioIPv4.mobileHost[2].wlan[1].mac 	numSent 	17
scalar NetworkMultiRadioIPv4.mobileHost[2].wlan[1].mac 	numSentWithoutRetry 	6
scalar NetworkMultiRadioIPv4.mobileHost[2].wlan[1].mac 	numReceived 	92
scalar NetworkMultiRadioIPv4.mobileHost[2].wlan[1].mac 	numSelfReceived 	40
scalar NetworkMultiRadioIPv4.mobileHost[2].wlan[1].mac 	numSentBroadcast 	19
scalar NetworkMultiRadioIPv4.mobileHost[2].wlan[1].mac 	numReceivedBroadcast 	1
scalar NetworkMultiRadioIPv4.mobileHost[2].wlan[1].mac 	numReceivedOther 	10767
scalar NetworkMultiRadioIPv4.mobileHost[2].wlan[1].mac 	numCollision 	10479
scalar NetworkMultiRadioIPv4.mobileHost[2].wlan[1].mac 	numGivenUp 	3
scalar NetworkMultiRadioIPv4.mobileHost[2].wlan[1].mac 	numAckSend 	92
scalar NetworkMultiRadioIPv4.mobileHost[2].wlan[1].mac 	numRetry 	48
scalar NetworkMultiRadioIPv4.mobileHost[2].wlan[2].mgmt 	"packets received by queue" 	31
scalar NetworkMultiRadioIPv4.mobileHost[2].wlan[2].mgmt 	"packets dropped by queue" 	0
scalar NetworkMultiRadioIPv4.mobileHost[2].wlan[2].mac 	"Mean Frame Length" 	222
scalar NetworkMultiRadioIPv4.mobileHost[2].wlan[2].mac 	"Frame Length stddev" 	0
scalar NetworkMultiRadioIPv4.mobileHost[2].wlan[2].mac 	"Sent Throughput" 	0.00097679886708201
scalar NetworkMultiRadioIPv4.mobileHost[2].wlan[2].mac 	"CW medio" 	19.416666666667
scalar NetworkMultiRadioIPv4.mobileHost[2].wlan[2].mac 	"CW max" 	111
scalar NetworkMultiRadioIPv4.mobileHost[2].wlan[2].mac 	"CW dev" 	17.527890641906
scalar NetworkMultiRadioIPv4.mobileHost[2].wlan[2].mac 	"Mean service time" 	0.0017078233121818
scalar NetworkMultiRadioIPv4.mobileHost[2].wlan[2].mac 	numSent 	11
scalar NetworkMultiRadioIPv4.mobileHost[2].wlan[2].mac 	numSentWithoutRetry 	6
scalar NetworkMultiRadioIPv4.mobileHost[2].wlan[2].mac 	numReceived 	102
scalar NetworkMultiRadioIPv4.mobileHost[2].wlan[2].mac 	numSelfReceived 	31
scalar NetworkMultiRadioIPv4.mobileHost[2].wlan[2].mac 	numSentBroadcast 	19
scalar NetworkMultiRadioIPv4.mobileHost[2].wlan[2].mac 	numReceivedBroadcast 	0
scalar NetworkMultiRadioIPv4.mobileHost[2].wlan[2].mac 	numReceivedOther 	10412
scalar NetworkMultiRadioIPv4.mobileHost[2].wlan[2].mac 	numCollision 	11460
scalar NetworkMultiRadioIPv4.mobileHost[2].wlan[2].mac 	numGivenUp 	0
scalar NetworkMultiRadioIPv4.mobileHost[2].wlan[2].mac 	numAckSend 	102
scalar NetworkMultiRadioIPv4.mobileHost[2].wlan[2].mac 	numRetry 	9
scalar NetworkMultiRadioIPv4.mobileHost[2].manetRouting.manetmanager.manetroutingprotocol 	"Position X" 	300
scalar NetworkMultiRadioIPv4.mobileHost[2].manetRouting.manetmanager.manetroutingprotocol 	"Position Y" 	0
scalar NetworkMultiRadioIPv4.mobileHost[2].manetRouting.manetmanager.manetroutingprotocol 	lonelyCount 	0
scalar NetworkMultiRadioIPv4.mobileHost[2].manetRouting.manetmanager.manetroutingprotocol 	noNextHopCount 	0
scalar NetworkMultiRadioIPv4.mobileHost[3].udpApp[0] 	"Total send" 	0
scalar NetworkMultiRadioIPv4.mobileHost[3].udpApp[0] 	"Total received" 	200
scalar NetworkMultiRadioIPv4.mobileHost[3].udpApp[0] 	"Total deleted" 	467
scalar NetworkMultiRadioIPv4.mobileHost[3].udpApp[0] 	"Mean delay" 	2.0126435140696
scalar NetworkMultiRadioIPv4.mobileHost[3].udpApp[0] 	"Min delay" 	0.011755338888
scalar NetworkMultiRadioIPv4.mobileHost[3].udpApp[0] 	"Max delay" 	3.527036621282
scalar NetworkMultiRadioIPv4.mobileHost[3].udpApp[0] 	"Deviation delay" 	0.85161896107009
scalar NetworkMultiRadioIPv4.mobileHost[3].udpApp[0] 	"TTL28 NumOfBurstsReceived" 	1
scalar NetworkMultiRadioIPv4.mobileHost[3].udpApp[0] 	"TTL28 NumOfPacketsReceived" 	55
scalar NetworkMultiRadioIPv4.mobileHost[3].udpApp[0] 	"TTL29 NumOfBurstsReceived" 	2
scalar NetworkMultiRadioIPv4.mobileHost[3].udpApp[0] 	"TTL29 NumOfPacketsReceived" 	145
scalar NetworkMultiRadioIPv4.mobileHost[3].udpApp[1] 	"Total send" 	928
scalar NetworkMultiRadioIPv4.mobileHost[3].udpApp[1] 	"Total received" 	0
scalar NetworkMultiRadioIPv4.mobileHost[3].udpApp[1] 	"Total deleted" 	0
scalar NetworkMultiRadioIPv4.mobileHost[3].udpApp[1] 	"Mean delay" 	0
scalar NetworkMultiRadioIPv4.mobileHost[3].udpApp[1] 	"Min delay" 	0
scalar NetworkMultiRadioIPv4.mobileHost[3].udpApp[1] 	"Max delay" 	0
scalar NetworkMultiRadioIPv4.mobileHost[3].udpApp[1] 	"Deviation delay" 	nan
scalar NetworkMultiRadioIPv4.mobileHost[3].udpApp[2] 	"Total send" 	927
scalar NetworkMultiRadioIPv4.mobileHost[3].udpApp[2] 	"Total received" 	0
scalar NetworkMultiRadioIPv4.mobileHost[3].udpApp[2] 	"Total deleted" 	0
scalar NetworkMultiRadioIPv4.mobileHost[3].udpApp[2] 	"Mean delay" 	0
scalar NetworkMultiRadioIPv4.mobileHost[3].udpApp[2] 	"Min delay" 	0
scalar NetworkMultiRadioIPv4.mobileHost[3].udpApp[2] 	"Max delay" 	0
scalar NetworkMultiRadioIPv4.mobileHost[3].udpApp[2] 	"Deviation delay" 	nan
scalar NetworkMultiRadioIPv4.mobileHost[3].pingApp 	"Pings sent" 	0
scalar NetworkMultiRadioIPv4.mobileHost[3].wlan[0].mgmt 	"packets received by queue" 	1968
scalar NetworkMultiRadioIPv4.mobileHost[3].wlan[0].mgmt 	"packets dropped by queue" 	0
scalar NetworkMultiRadioIPv4.mobileHost[3].wlan[0].mac 	"Mean Frame Length" 	222
scalar NetworkMultiRadioIPv4.mobileHost[3].wlan[0].mac 	"Frame Length stddev" 	0
scalar NetworkMultiRadioIPv4.mobileHost[3].wlan[0].mac 	"Sent Throughput" 	0.16614460730095
scalar NetworkMultiRadioIPv4.mobileHost[3].wlan[0].mac 	"CW medio" 	90.722707423581
scalar NetworkMultiRadioIPv4.mobileHost[3].wlan[0].mac 	"CW max" 	1019
scalar NetworkMultiRadioIPv4.mobileHost[3].wlan[0].mac 	"CW dev" 	161.92476248127
scalar NetworkMultiRadioIPv4.mobileHost[3].wlan[0].mac 	"Mean service time" 	0.012315969733206
scalar NetworkMultiRadioIPv4.mobileHost[3].wlan[0].mac 	numSent 	1871
scalar NetworkMultiRadioIPv4.mobileHost[3].wlan[0].mac 	numSentWithoutRetry 	815
scalar NetworkMultiRadioIPv4.mobileHost[3].wlan[0].mac 	numReceived 	1192
scalar NetworkMultiRadioIPv4.mobileHost[3].wlan[0].mac 	numSelfReceived 	1964
scalar NetworkMultiRadioIPv4.mobileHost[3].wlan[0].mac 	numSentBroadcast 	18
scalar NetworkMultiRadioIPv4.mobileHost[3].wlan[0].mac 	numReceivedBroadcast 	1
scalar NetworkMultiRadioIPv4.mobileHost[3].wlan[0].mac 	numReceivedOther 	7909
scalar NetworkMultiRadioIPv4.mobileHost[3].wlan[0].mac 	numCollision 	9332
scalar NetworkMultiRadioIPv4.mobileHost[3].wlan[0].mac 	numGivenUp 	72
scalar NetworkMultiRadioIPv4.mobileHost[3].wlan[0].mac 	numAckSend 	1192
scalar NetworkMultiRadioIPv4.mobileHost[3].wlan[0].mac 	numRetry 	2927
scalar NetworkMultiRadioIPv4.mobileHost[3].wlan[1].mgmt 	"packets received by queue" 	1090
scalar NetworkMultiRadioIPv4.mobileHost[3].wlan[1].mgmt 	"packets dropped by queue" 	0
scalar NetworkMultiRadioIPv4.mobileHost[3].wlan[1].mac 	"Mean Frame Length" 	222
scalar NetworkMultiRadioIPv4.mobileHost[3].wlan[1].mac 	"Frame Length stddev" 	0
scalar NetworkMultiRadioIPv4.mobileHost[3].wlan[1].mac 	"Sent Throughput" 	0.090753494741619
scalar NetworkMultiRadioIPv4.mobileHost[3].wlan[1].mac 	"CW medio" 	94.263643351268
scalar NetworkMultiRadioIPv4.mobileHost[3].wlan[1].mac 	"CW max" 	1021
scalar NetworkMultiRadioIPv4.mobileHost[3].wlan[1].mac 	"CW dev" 	166.16524473698
scalar NetworkMultiRadioIPv4.mobileHost[3].wlan[1].mac 	"Mean service time" 	0.0094654812998532
scalar NetworkMultiRadioIPv4.mobileHost[3].wlan[1].mac 	numSent 	1022
scalar NetworkMultiRadioIPv4.mobileHost[3].wlan[1].mac 	numSentWithoutRetry 	360
scalar NetworkMultiRadioIPv4.mobileHost[3].wlan[1].mac 	numReceived 	244
scalar NetworkMultiRadioIPv4.mobileHost[3].wlan[1].mac 	numSelfReceived 	1090
scalar NetworkMultiRadioIPv4.mobileHost[3].wlan[1].mac 	numSentBroadcast 	19
scalar NetworkMultiRadioIPv4.mobileHost[3].wlan[1].mac 	numReceivedBroadcast 	0
scalar NetworkMultiRadioIPv4.mobileHost[3].wlan[1].mac 	numReceivedOther 	6634
scalar NetworkMultiRadioIPv4.mobileHost[3].wlan[1].mac 	numCollision 	7790
scalar NetworkMultiRadioIPv4.mobileHost[3].wlan[1].mac 	numGivenUp 	48
scalar NetworkMultiRadioIPv4.mobileHost[3].wlan[1].mac 	numAckSend 	244
scalar NetworkMultiRadioIPv4.mobileHost[3].wlan[1].mac 	numRetry 	1825
scalar NetworkMultiRadioIPv4.mobileHost[3].wlan[2].mgmt 	"packets received by queue" 	63
scalar NetworkMultiRadioIPv4.mobileHost[3].wlan[2].mgmt 	"packets dropped by queue" 	0
scalar NetworkMultiRadioIPv4.mobileHost[3].wlan[2].mac 	"Mean Frame Length" 	222
scalar NetworkMultiRadioIPv4.mobileHost[3].wlan[2].mac 	"Frame Length stddev" 	0
scalar NetworkMultiRadioIPv4.mobileHost[3].wlan[2].mac 	"Sent Throughput" 	0.0037295956743131
scalar NetworkMultiRadioIPv4.mobileHost[3].wlan[2].mac 	"CW medio" 	87.924369747899
scalar NetworkMultiRadioIPv4.mobileHost[3].wlan[2].mac 	"CW max" 	1003
scalar NetworkMultiRadioIPv4.mobileHost[3].wlan[2].mac 	"CW dev" 	183.46348455154
scalar NetworkMultiRadioIPv4.mobileHost[3].wlan[2].mac 	"Mean service time" 	0.010401622544476
scalar NetworkMultiRadioIPv4.mobileHost[3].wlan[2].mac 	numSent 	42
scalar NetworkMultiRadioIPv4.mobileHost[3].wlan[2].mac 	numSentWithoutRetry 	17
scalar NetworkMultiRadioIPv4.mobileHost[3].wlan[2].mac 	numReceived 	473
scalar NetworkMultiRadioIPv4.mobileHost[3].wlan[2].mac 	numSelfReceived 	63
scalar NetworkMultiRadioIPv4.mobileHost[3].wlan[2].mac 	numSentBroadcast 	19
scalar NetworkMultiRadioIPv4.mobileHost[3].wlan[2].mac 	numReceivedBroadcast 	0
scalar NetworkMultiRadioIPv4.mobileHost[3].wlan[2].mac 	numReceivedOther 	11608
scalar NetworkMultiRadioIPv4.mobileHost[3].wlan[2].mac 	numCollision 	12219
scalar NetworkMultiRadioIPv4.mobileHost[3].wlan[2].mac 	numGivenUp 	1
scalar NetworkMultiRadioIPv4.mobileHost[3].wlan[2].mac 	numAckSend 	473
scalar NetworkMultiRadioIPv4.mobileHost[3].wlan[2].mac 	numRetry 	60
scalar NetworkMultiRadioIPv4.mobileHost[3].manetRouting.manetmanager.manetroutingprotocol 	"Position X" 	450
scalar NetworkMultiRadioIPv4.mobileHost[3].manetRouting.manetmanager.manetroutingprotocol 	"Position Y" 	0
scalar NetworkMultiRadioIPv4.mobileHost[3].manetRouting.manetmanager.manetroutingprotocol 	lonelyCount 	0
scalar NetworkMultiRadioIPv4.mobileHost[3].manetRouting.manetmanager.manetroutingprotocol 	noNextHopCount 	0
scalar NetworkMultiRadioIPv4.mobileHost[4].udpApp[0] 	"Total send" 	927
scalar NetworkMultiRadioIPv4.mobileHost[4].udpApp[0] 	"Total received" 	2276
scalar NetworkMultiRadioIPv4.mobileHost[4].udpApp[0] 	"Total deleted" 	362
scalar NetworkMultiRadioIPv4.mobileHost[4].udpApp[0] 	"Mean delay" 	0.053633957544637
scalar NetworkMultiRadioIPv4.mobileHost[4].udpApp[0] 	"Min delay" 	9.05e-05
scalar NetworkMultiRadioIPv4.mobileHost[4].udpApp[0] 	"Max delay" 	3.193579293059
scalar NetworkMultiRadioIPv4.mobileHost[4].udpApp[0] 	"Deviation delay" 	0.30463078737825
scalar NetworkMultiRadioIPv4.mobileHost[4].udpApp[0] 	"TTL28 NumOfBurstsReceived" 	1
scalar NetworkMultiRadioIPv4.mobileHost[4].udpApp[0] 	"TTL28 NumOfPacketsReceived" 	45
scalar NetworkMultiRadioIPv4.mobileHost[4].udpApp[0] 	"TTL30 NumOfBurstsReceived" 	1
scalar NetworkMultiRadioIPv4.mobileHost[4].udpApp[0] 	"TTL30 NumOfPacketsReceived" 	769
scalar NetworkMultiRadioIPv4.mobileHost[4].udpApp[0] 	"TTL31 NumOfBurstsReceived" 	2
scalar NetworkMultiRadioIPv4.mobileHost[4].udpApp[0] 	"TTL31 NumOfPacketsReceived" 	1462
scalar NetworkMultiRadioIPv4.mobileHost[4].udpApp[1] 	"Total send" 	928
scalar NetworkMultiRadioIPv4.mobileHost[4].udpApp[1] 	"Total received" 	0
scalar NetworkMultiRadioIPv4.mobileHost[4].udpApp[1] 	"Total deleted" 	0
scalar NetworkMultiRadioIPv4.mobileHost[4].udpApp[1] 	"Mean delay" 	0
scalar NetworkMultiRadioIPv4.mobileHost[4].udpApp[1] 	"Min delay" 	0
scalar NetworkMultiRadioIPv4.mobileHost[4].udpApp[1] 	"Max delay" 	0
scalar NetworkMultiRadioIPv4.mobileHost[4].udpApp[1] 	"Deviation delay" 	nan
scalar NetworkMultiRadioIPv4.mobileHost[4].udpApp[2] 	"Total send" 	928
scalar NetworkMultiRadioIPv4.mobileHost[4].udpApp[2] 	"Total received" 	0
scalar NetworkMultiRadioIPv4.mobileHost[4].udpApp[2] 	"Total deleted" 	0
scalar NetworkMultiRadioIPv4.mobileHost[4].udpApp[2] 	"Mean delay" 	0
scalar NetworkMultiRadioIPv4.mobileHost[4].udpApp[2] 	"Min delay" 	0
scalar NetworkMultiRadioIPv4.mobileHost[4].udpApp[2] 	"Max delay" 	0
scalar NetworkMultiRadioIPv4.mobileHost[4].udpApp[2] 	"Deviation delay" 	nan
scalar NetworkMultiRadioIPv4.mobileHost[4].pingApp 	"Pings sent" 	0
scalar NetworkMultiRadioIPv4.mobileHost[4].wlan[0].mgmt 	"packets received by queue" 	1666
scalar NetworkMultiRadioIPv4.mobileHost[4].wlan[0].mgmt 	"packets dropped by queue" 	0
scalar NetworkMultiRadioIPv4.mobileHost[4].wlan[0].mac 	"Mean Frame Length" 	222
scalar NetworkMultiRadioIPv4.mobileHost[4].wlan[0].mac 	"Frame Length stddev" 	0
scalar NetworkMultiRadioIPv4.mobileHost[4].wlan[0].mac 	"Sent Throughput" 	0.1298254494249
scalar NetworkMultiRadioIPv4.mobileHost[4].wlan[0].mac 	"CW medio" 	117.0625
scalar NetworkMultiRadioIPv4.mobileHost[4].wlan[0].mac 	"CW max" 	1023
scalar NetworkMultiRadioIPv4.mobileHost[4].wlan[0].mac 	"CW dev" 	192.08034777011
scalar NetworkMultiRadioIPv4.mobileHost[4].wlan[0].mac 	"Mean service time" 	0.028746198322468
scalar NetworkMultiRadioIPv4.mobileHost[4].wlan[0].mac 	numSent 	1462
scalar NetworkMultiRadioIPv4.mobileHost[4].wlan[0].mac 	numSentWithoutRetry 	548
scalar NetworkMultiRadioIPv4.mobileHost[4].wlan[0].mac 	numReceived 	2345
scalar NetworkMultiRadioIPv4.mobileHost[4].wlan[0].mac 	numSelfReceived 	1666
scalar NetworkMultiRadioIPv4.mobileHost[4].wlan[0].mac 	numSentBroadcast 	18
scalar NetworkMultiRadioIPv4.mobileHost[4].wlan[0].mac 	numReceivedBroadcast 	4
scalar NetworkMultiRadioIPv4.mobileHost[4].wlan[0].mac 	numReceivedOther 	4710
scalar NetworkMultiRadioIPv4.mobileHost[4].wlan[0].mac 	numCollision 	9613
scalar NetworkMultiRadioIPv4.mobileHost[4].wlan[0].mac 	numGivenUp 	183
scalar NetworkMultiRadioIPv4.mobileHost[4].wlan[0].mac 	numAckSend 	2345
scalar NetworkMultiRadioIPv4.mobileHost[4].wlan[0].mac 	numRetry 	3440
scalar NetworkMultiRadioIPv4.mobileHost[4].wlan[1].mgmt 	"packets received by queue" 	131
scalar NetworkMultiRadioIPv4.mobileHost[4].wlan[1].mgmt 	"packets dropped by queue" 	0
scalar NetworkMultiRadioIPv4.mobileHost[4].wlan[1].mac 	"Mean Frame Length" 	222
scalar NetworkMultiRadioIPv4.mobileHost[4].wlan[1].mac 	"Frame Length stddev" 	0
scalar NetworkMultiRadioIPv4.mobileHost[4].wlan[1].mac 	"Sent Throughput" 	0.0086135900097232
scalar NetworkMultiRadioIPv4.mobileHost[4].wlan[1].mac 	"CW medio" 	112.85677083333
scalar NetworkMultiRadioIPv4.mobileHost[4].wlan[1].mac 	"CW max" 	921
scalar NetworkMultiRadioIPv4.mobileHost[4].wlan[1].mac 	"CW dev" 	178.10497331803
scalar NetworkMultiRadioIPv4.mobileHost[4].wlan[1].mac 	"Mean service time" 	0.017811861915567
scalar NetworkMultiRadioIPv4.mobileHost[4].wlan[1].mac 	numSent 	97
scalar NetworkMultiRadioIPv4.mobileHost[4].wlan[1].mac 	numSentWithoutRetry 	22
scalar NetworkMultiRadioIPv4.mobileHost[4].wlan[1].mac 	numReceived 	1356
scalar NetworkMultiRadioIPv4.mobileHost[4].wlan[1].mac 	numSelfReceived 	131
scalar NetworkMultiRadioIPv4.mobileHost[4].wlan[1].mac 	numSentBroadcast 	18
scalar NetworkMultiRadioIPv4.mobileHost[4].wlan[1].mac 	numReceivedBroadcast 	1
scalar NetworkMultiRadioIPv4.mobileHost[4].wlan[1].mac 	numReceivedOther 	8451
scalar NetworkMultiRadioIPv4.mobileHost[4].wlan[1].mac 	numCollision 	11609
scalar NetworkMultiRadioIPv4.mobileHost[4].wlan[1].mac 	numGivenUp 	15
scalar NetworkMultiRadioIPv4.mobileHost[4].wlan[1].mac 	numAckSend 	1356
scalar NetworkMultiRadioIPv4.mobileHost[4].wlan[1].mac 	numRetry 	280
scalar NetworkMultiRadioIPv4.mobileHost[4].wlan[2].mgmt 	"packets received by queue" 	2252
scalar NetworkMultiRadioIPv4.mobileHost[4].wlan[2].mgmt 	"packets dropped by queue" 	0
scalar NetworkMultiRadioIPv4.mobileHost[4].wlan[2].mac 	"Mean Frame Length" 	222
scalar NetworkMultiRadioIPv4.mobileHost[4].wlan[2].mac 	"Frame Length stddev" 	0
scalar NetworkMultiRadioIPv4.mobileHost[4].wlan[2].mac 	"Sent Throughput" 	0.17822139329396
scalar NetworkMultiRadioIPv4.mobileHost[4].wlan[2].mac 	"CW medio" 	115.37285758803
scalar NetworkMultiRadioIPv4.mobileHost[4].wlan[2].mac 	"CW max" 	1023
scalar NetworkMultiRadioIPv4.mobileHost[4].wlan[2].mac 	"CW dev" 	190.55577725908
scalar NetworkMultiRadioIPv4.mobileHost[4].wlan[2].mac 	"Mean service time" 	0.026302166113076
scalar NetworkMultiRadioIPv4.mobileHost[4].wlan[2].mac 	numSent 	2007
scalar NetworkMultiRadioIPv4.mobileHost[4].wlan[2].mac 	numSentWithoutRetry 	740
scalar NetworkMultiRadioIPv4.mobileHost[4].wlan[2].mac 	numReceived 	146
scalar NetworkMultiRadioIPv4.mobileHost[4].wlan[2].mac 	numSelfReceived 	2251
scalar NetworkMultiRadioIPv4.mobileHost[4].wlan[2].mac 	numSentBroadcast 	18
scalar NetworkMultiRadioIPv4.mobileHost[4].wlan[2].mac 	numReceivedBroadcast 	1
scalar NetworkMultiRadioIPv4.mobileHost[4].wlan[2].mac 	numReceivedOther 	5854
scalar NetworkMultiRadioIPv4.mobileHost[4].wlan[2].mac 	numCollision 	6330
scalar NetworkMultiRadioIPv4.mobileHost[4].wlan[2].mac 	numGivenUp 	223
scalar NetworkMultiRadioIPv4.mobileHost[4].wlan[2].mac 	numAckSend 	146
scalar NetworkMultiRadioIPv4.mobileHost[4].wlan[2].mac 	numRetry 	4547
scalar NetworkMultiRadioIPv4.mobileHost[4].manetRouting.manetmanager.manetroutingprotocol 	"Position X" 	600
scalar NetworkMultiRadioIPv4.mobileHost[4].manetRouting.manetmanager.manetroutingprotocol 	"Position Y" 	0
scalar NetworkMultiRadioIPv4.mobileHost[4].manetRouting.manetmanager.manetroutingprotocol 	lonelyCount 	0
scalar NetworkMultiRadioIPv4.mobileHost[4].manetRouting.manetmanager.manetroutingprotocol 	noNextHopCount 	0
scalar NetworkMultiRadioIPv4.mobileHost[5].udpApp[0] 	"Total send" 	0
scalar NetworkMultiRadioIPv4.mobileHost[5].udpApp[0] 	"Total received" 	789
scalar NetworkMultiRadioIPv4.mobileHost[5].udpApp[0] 	"Total deleted" 	512
scalar NetworkMultiRadioIPv4.mobileHost[5].udpApp[0] 	"Mean delay" 	0.2092869335648
scalar NetworkMultiRadioIPv4.mobileHost[5].udpApp[0] 	"Min delay" 	0.000181
scalar NetworkMultiRadioIPv4.mobileHost[5].udpApp[0] 	"Max delay" 	4.935444719469
scalar NetworkMultiRadioIPv4.mobileHost[5].udpApp[0] 	"Deviation delay" 	0.6241335630225
scalar NetworkMultiRadioIPv4.mobileHost[5].udpApp[0] 	"TTL27 NumOfBurstsReceived" 	1
scalar NetworkMultiRadioIPv4.mobileHost[5].udpApp[0] 	"TTL27 NumOfPacketsReceived" 	46
scalar NetworkMultiRadioIPv4.mobileHost[5].udpApp[0] 	"TTL28 NumOfBurstsReceived" 	1
scalar NetworkMultiRadioIPv4.mobileHost[5].udpApp[0] 	"TTL28 NumOfPacketsReceived" 	78
scalar NetworkMultiRadioIPv4.mobileHost[5].udpApp[0] 	"TTL30 NumOfBurstsReceived" 	1
scalar NetworkMultiRadioIPv4.mobileHost[5].udpApp[0] 	"TTL30 NumOfPacketsReceived" 	665
scalar NetworkMultiRadioIPv4.mobileHost[5].udpApp[1] 	"Total send" 	928
scalar NetworkMultiRadioIPv4.mobileHost[5].udpApp[1] 	"Total received" 	0
scalar NetworkMultiRadioIPv4.mobileHost[5].udpApp[1] 	"Total deleted" 	0
scalar NetworkMultiRadioIPv4.mobileHost[5].udpApp[1] 	"Mean delay" 	0
scalar NetworkMultiRadioIPv4.mobileHost[5].udpApp[1] 	"Min delay" 	0
scalar NetworkMultiRadioIPv4.mobileHost[5].udpApp[1] 	"Max delay" 	0
scalar NetworkMultiRadioIPv4.mobileHost[5].udpApp[1] 	"Deviation delay" 	nan
scalar NetworkMultiRadioIPv4.mobileHost[5].udpApp[2] 	"Total send" 	927
scalar NetworkMultiRadioIPv4.mobileHost[5].udpApp[2] 	"Total received" 	0
scalar NetworkMultiRadioIPv4.mobileHost[5].udpApp[2] 	"Total deleted" 	0
scalar NetworkMultiRadioIPv4.mobileHost[5].udpApp[2] 	"Mean delay" 	0
scalar NetworkMultiRadioIPv4.mobileHost[5].udpApp[2] 	"Min delay" 	0
scalar NetworkMultiRadioIPv4.mobileHost[5].udpApp[2] 	"Max delay" 	0
scalar NetworkMultiRadioIPv4.mobileHost[5].udpApp[2] 	"Deviation delay" 	nan
scalar NetworkMultiRadioIPv4.mobileHost[5].pingApp 	"Pings sent" 	0
scalar NetworkMultiRadioIPv4.mobileHost[5].wlan[0].mgmt 	"packets received by queue" 	71
scalar NetworkMultiRadioIPv4.mobileHost[5].wlan[0].mgmt 	"packets dropped by queue" 	0
scalar NetworkMultiRadioIPv4.mobileHost[5].wlan[0].mac 	"Mean Frame Length" 	222
scalar NetworkMultiRadioIPv4.mobileHost[5].wlan[0].mac 	"Frame Length stddev" 	0
scalar NetworkMultiRadioIPv4.mobileHost[5].wlan[0].mac 	"Sent Throughput" 	0.0034631959832908
scalar NetworkMultiRadioIPv4.mobileHost[5].wlan[0].mac 	"CW medio" 	139.94907407407
scalar NetworkMultiRadioIPv4.mobileHost[5].wlan[0].mac 	"CW max" 	1015
scalar NetworkMultiRadioIPv4.mobileHost[5].wlan[0].mac 	"CW dev" 	209.27387685524
scalar NetworkMultiRadioIPv4.mobileHost[5].wlan[0].mac 	"Mean service time" 	0.0098202788551538
scalar NetworkMultiRadioIPv4.mobileHost[5].wlan[0].mac 	numSent 	39
scalar NetworkMultiRadioIPv4.mobileHost[5].wlan[0].mac 	numSentWithoutRetry 	9
scalar NetworkMultiRadioIPv4.mobileHost[5].wlan[0].mac 	numReceived 	584
scalar NetworkMultiRadioIPv4.mobileHost[5].wlan[0].mac 	numSelfReceived 	71
scalar NetworkMultiRadioIPv4.mobileHost[5].wlan[0].mac 	numSentBroadcast 	19
scalar NetworkMultiRadioIPv4.mobileHost[5].wlan[0].mac 	numReceivedBroadcast 	1
scalar NetworkMultiRadioIPv4.mobileHost[5].wlan[0].mac 	numReceivedOther 	6944
scalar NetworkMultiRadioIPv4.mobileHost[5].wlan[0].mac 	numCollision 	7105
scalar NetworkMultiRadioIPv4.mobileHost[5].wlan[0].mac 	numGivenUp 	12
scalar NetworkMultiRadioIPv4.mobileHost[5].wlan[0].mac 	numAckSend 	584
scalar NetworkMultiRadioIPv4.mobileHost[5].wlan[0].mac 	numRetry 	164
scalar NetworkMultiRadioIPv4.mobileHost[5].wlan[1].mgmt 	"packets received by queue" 	1750
scalar NetworkMultiRadioIPv4.mobileHost[5].wlan[1].mgmt 	"packets dropped by queue" 	0
scalar NetworkMultiRadioIPv4.mobileHost[5].wlan[1].mac 	"Mean Frame Length" 	222
scalar NetworkMultiRadioIPv4.mobileHost[5].wlan[1].mac 	"Frame Length stddev" 	0
scalar NetworkMultiRadioIPv4.mobileHost[5].wlan[1].mac 	"Sent Throughput" 	0.1322230466441
scalar NetworkMultiRadioIPv4.mobileHost[5].wlan[1].mac 	"CW medio" 	133.80078932531
scalar NetworkMultiRadioIPv4.mobileHost[5].wlan[1].mac 	"CW max" 	1023
scalar NetworkMultiRadioIPv4.mobileHost[5].wlan[1].mac 	"CW dev" 	208.94815831693
scalar NetworkMultiRadioIPv4.mobileHost[5].wlan[1].mac 	"Mean service time" 	0.018027937687306
scalar NetworkMultiRadioIPv4.mobileHost[5].wlan[1].mac 	numSent 	1489
scalar NetworkMultiRadioIPv4.mobileHost[5].wlan[1].mac 	numSentWithoutRetry 	499
scalar NetworkMultiRadioIPv4.mobileHost[5].wlan[1].mac 	numReceived 	69
scalar NetworkMultiRadioIPv4.mobileHost[5].wlan[1].mac 	numSelfReceived 	1750
scalar NetworkMultiRadioIPv4.mobileHost[5].wlan[1].mac 	numSentBroadcast 	19
scalar NetworkMultiRadioIPv4.mobileHost[5].wlan[1].mac 	numReceivedBroadcast 	2
scalar NetworkMultiRadioIPv4.mobileHost[5].wlan[1].mac 	numReceivedOther 	4787
scalar NetworkMultiRadioIPv4.mobileHost[5].wlan[1].mac 	numCollision 	5581
scalar NetworkMultiRadioIPv4.mobileHost[5].wlan[1].mac 	numGivenUp 	241
scalar NetworkMultiRadioIPv4.mobileHost[5].wlan[1].mac 	numAckSend 	69
scalar NetworkMultiRadioIPv4.mobileHost[5].wlan[1].mac 	numRetry 	4015
scalar NetworkMultiRadioIPv4.mobileHost[5].wlan[2].mgmt 	"packets received by queue" 	86
scalar NetworkMultiRadioIPv4.mobileHost[5].wlan[2].mgmt 	"packets dropped by queue" 	0
scalar NetworkMultiRadioIPv4.mobileHost[5].wlan[2].mac 	"Mean Frame Length" 	222
scalar NetworkMultiRadioIPv4.mobileHost[5].wlan[2].mac 	"Frame Length stddev" 	0
scalar NetworkMultiRadioIPv4.mobileHost[5].wlan[2].mac 	"Sent Throughput" 	0.0051503940264324
scalar NetworkMultiRadioIPv4.mobileHost[5].wlan[2].mac 	"CW medio" 	111.57407407407
scalar NetworkMultiRadioIPv4.mobileHost[5].wlan[2].mac 	"CW max" 	926
scalar NetworkMultiRadioIPv4.mobileHost[5].wlan[2].mac 	"CW dev" 	167.62323220808
scalar NetworkMultiRadioIPv4.mobileHost[5].wlan[2].mac 	"Mean service time" 	0.0065239510670172
scalar NetworkMultiRadioIPv4.mobileHost[5].wlan[2].mac 	numSent 	58
scalar NetworkMultiRadioIPv4.mobileHost[5].wlan[2].mac 	numSentWithoutRetry 	22
scalar NetworkMultiRadioIPv4.mobileHost[5].wlan[2].mac 	numReceived 	648
scalar NetworkMultiRadioIPv4.mobileHost[5].wlan[2].mac 	numSelfReceived 	86
scalar NetworkMultiRadioIPv4.mobileHost[5].wlan[2].mac 	numSentBroadcast 	19
scalar NetworkMultiRadioIPv4.mobileHost[5].wlan[2].mac 	numReceivedBroadcast 	0
scalar NetworkMultiRadioIPv4.mobileHost[5].wlan[2].mac 	numReceivedOther 	4602
scalar NetworkMultiRadioIPv4.mobileHost[5].wlan[2].mac 	numCollision 	6671
scalar NetworkMultiRadioIPv4.mobileHost[5].wlan[2].mac 	numGivenUp 	8
scalar NetworkMultiRadioIPv4.mobileHost[5].wlan[2].mac 	numAckSend 	648
scalar NetworkMultiRadioIPv4.mobileHost[5].wlan[2].mac 	numRetry 	154
scalar NetworkMultiRadioIPv4.mobileHost[5].manetRouting.manetmanager.manetroutingprotocol 	"Position X" 	750
scalar NetworkMultiRadioIPv4.mobileHost[5].manetRouting.manetmanager.manetroutingprotocol 	"Position Y" 	0
scalar NetworkMultiRadioIPv4.mobileHost[5].manetRouting.manetmanager.manetroutingprotocol 	lonelyCount 	0
scalar NetworkMultiRadioIPv4.mobileHost[5].manetRouting.manetmanager.manetroutingprotocol 	noNextHopCount 	0
scalar NetworkMultiRadioIPv4.mobileHost[6].udpApp[0] 	"Total send" 	0
scalar NetworkMultiRadioIPv4.mobileHost[6].udpApp[0] 	"Total received" 	1050
scalar NetworkMultiRadioIPv4.mobileHost[6].udpApp[0] 	"Total deleted" 	496
scalar NetworkMultiRadioIPv4.mobileHost[6].udpApp[0] 	"Mean delay" 	0.71787034715284
scalar NetworkMultiRadioIPv4.mobileHost[6].udpApp[0] 	"Min delay" 	9.05e-05
scalar NetworkMultiRadioIPv4.mobileHost[6].udpApp[0] 	"Max delay" 	4.099082672183
scalar NetworkMultiRadioIPv4.mobileHost[6].udpApp[0] 	"Deviation delay" 	0.57820077273509
scalar NetworkMultiRadioIPv4.mobileHost[6].udpApp[0] 	"TTL28 NumOfBurstsReceived" 	2
scalar NetworkMultiRadioIPv4.mobileHost[6].udpApp[0] 	"TTL28 NumOfPacketsReceived" 	180
scalar NetworkMultiRadioIPv4.mobileHost[6].udpApp[0] 	"TTL29 NumOfBurstsReceived" 	1
scalar NetworkMultiRadioIPv4.mobileHost[6].udpApp[0] 	"TTL29 NumOfPacketsReceived" 	59
scalar NetworkMultiRadioIPv4.mobileHost[6].udpApp[0] 	"TTL31 NumOfBurstsReceived" 	1
scalar NetworkMultiRadioIPv4.mobileHost[6].udpApp[0] 	"TTL31 NumOfPacketsReceived" 	811
scalar NetworkMultiRadioIPv4.mobileHost[6].udpApp[1] 	"Total send" 	928
scalar NetworkMultiRadioIPv4.mobileHost[6].udpApp[1] 	"Total received" 	0
scalar NetworkMultiRadioIPv4.mobileHost[6].udpApp[1] 	"Total deleted" 	0
scalar NetworkMultiRadioIPv4.mobileHost[6].udpApp[1] 	"Mean delay" 	0
scalar NetworkMultiRadioIPv4.mobileHost[6].udpApp[1] 	"Min delay" 	0
scalar NetworkMultiRadioIPv4.mobileHost[6].udpApp[1] 	"Max delay" 	0
scalar NetworkMultiRadioIPv4.mobileHost[6].udpApp[1] 	"Deviation delay" 	nan
scalar NetworkMultiRadioIPv4.mobileHost[6].udpApp[2] 	"Total send" 	929
scalar NetworkMultiRadioIPv4.mobileHost[6].udpApp[2] 	"Total received" 	0
scalar NetworkMultiRadioIPv4.mobileHost[6].udpApp[2] 	"Total deleted" 	0
scalar NetworkMultiRadioIPv4.mobileHost[6].udpApp[2] 	"Mean delay" 	0
scalar NetworkMultiRadioIPv4.mobileHost[6].udpApp[2] 	"Min delay" 	0
scalar NetworkMultiRadioIPv4.mobileHost[6].udpApp[2] 	"Max delay" 	0
scalar NetworkMultiRadioIPv4.mobileHost[6].udpApp[2] 	"Deviation delay" 	nan
scalar NetworkMultiRadioIPv4.mobileHost[6].pingApp 	"Pings sent" 	0
scalar NetworkMultiRadioIPv4.mobileHost[6].wlan[0].mgmt 	"packets received by queue" 	1917
scalar NetworkMultiRadioIPv4.mobileHost[6].wlan[0].mgmt 	"packets dropped by queue" 	0
scalar NetworkMultiRadioIPv4.mobileHost[6].wlan[0].mac 	"Mean Frame Length" 	222
scalar NetworkMultiRadioIPv4.mobileHost[6].wlan[0].mac 	"Frame Length stddev" 	0
scalar NetworkMultiRadioIPv4.mobileHost[6].wlan[0].mac 	"Sent Throughput" 	0.15282462274983
scalar NetworkMultiRadioIPv4.mobileHost[6].wlan[0].mac 	"CW medio" 	113.80528938291
scalar NetworkMultiRadioIPv4.mobileHost[6].wlan[0].mac 	"CW max" 	1023
scalar NetworkMultiRadioIPv4.mobileHost[6].wlan[0].mac 	"CW dev" 	191.30190750444
scalar NetworkMultiRadioIPv4.mobileHost[6].wlan[0].mac 	"Mean service time" 	0.019879740713218
scalar NetworkMultiRadioIPv4.mobileHost[6].wlan[0].mac 	numSent 	1721
scalar NetworkMultiRadioIPv4.mobileHost[6].wlan[0].mac 	numSentWithoutRetry 	686
scalar NetworkMultiRadioIPv4.mobileHost[6].wlan[0].mac 	numReceived 	160
scalar NetworkMultiRadioIPv4.mobileHost[6].wlan[0].mac 	numSelfReceived 	1917
scalar NetworkMultiRadioIPv4.mobileHost[6].wlan[0].mac 	numSentBroadcast 	19
scalar NetworkMultiRadioIPv4.mobileHost[6].wlan[0].mac 	numReceivedBroadcast 	0
scalar NetworkMultiRadioIPv4.mobileHost[6].wlan[0].mac 	numReceivedOther 	5731
scalar NetworkMultiRadioIPv4.mobileHost[6].wlan[0].mac 	numCollision 	7409
scalar NetworkMultiRadioIPv4.mobileHost[6].wlan[0].mac 	numGivenUp 	176
scalar NetworkMultiRadioIPv4.mobileHost[6].wlan[0].mac 	numAckSend 	160
scalar NetworkMultiRadioIPv4.mobileHost[6].wlan[0].mac 	numRetry 	3650
scalar NetworkMultiRadioIPv4.mobileHost[6].wlan[1].mgmt 	"packets received by queue" 	1157
scalar NetworkMultiRadioIPv4.mobileHost[6].wlan[1].mgmt 	"packets dropped by queue" 	0
scalar NetworkMultiRadioIPv4.mobileHost[6].wlan[1].mac 	"Mean Frame Length" 	222
scalar NetworkMultiRadioIPv4.mobileHost[6].wlan[1].mac 	"Frame Length stddev" 	0
scalar NetworkMultiRadioIPv4.mobileHost[6].wlan[1].mac 	"Sent Throughput" 	0.092884692269798
scalar NetworkMultiRadioIPv4.mobileHost[6].wlan[1].mac 	"CW medio" 	102.34497251859
scalar NetworkMultiRadioIPv4.mobileHost[6].wlan[1].mac 	"CW max" 	1020
scalar NetworkMultiRadioIPv4.mobileHost[6].wlan[1].mac 	"CW dev" 	179.56006403384
scalar NetworkMultiRadioIPv4.mobileHost[6].wlan[1].mac 	"Mean service time" 	0.027931469976943
scalar NetworkMultiRadioIPv4.mobileHost[6].wlan[1].mac 	numSent 	1046
scalar NetworkMultiRadioIPv4.mobileHost[6].wlan[1].mac 	numSentWithoutRetry 	394
scalar NetworkMultiRadioIPv4.mobileHost[6].wlan[1].mac 	numReceived 	2127
scalar NetworkMultiRadioIPv4.mobileHost[6].wlan[1].mac 	numSelfReceived 	1157
scalar NetworkMultiRadioIPv4.mobileHost[6].wlan[1].mac 	numSentBroadcast 	19
scalar NetworkMultiRadioIPv4.mobileHost[6].wlan[1].mac 	numReceivedBroadcast 	0
scalar NetworkMultiRadioIPv4.mobileHost[6].wlan[1].mac 	numReceivedOther 	10372
scalar NetworkMultiRadioIPv4.mobileHost[6].wlan[1].mac 	numCollision 	14599
scalar NetworkMultiRadioIPv4.mobileHost[6].wlan[1].mac 	numGivenUp 	91
scalar NetworkMultiRadioIPv4.mobileHost[6].wlan[1].mac 	numAckSend 	2127
scalar NetworkMultiRadioIPv4.mobileHost[6].wlan[1].mac 	numRetry 	2052
scalar NetworkMultiRadioIPv4.mobileHost[6].wlan[2].mgmt 	"packets received by queue" 	72
scalar NetworkMultiRadioIPv4.mobileHost[6].wlan[2].mgmt 	"packets dropped by queue" 	0
scalar NetworkMultiRadioIPv4.mobileHost[6].wlan[2].mac 	"Mean Frame Length" 	222
scalar NetworkMultiRadioIPv4.mobileHost[6].wlan[2].mac 	"Frame Length stddev" 	0
scalar NetworkMultiRadioIPv4.mobileHost[6].wlan[2].mac 	"Sent Throughput" 	0.0041735951593504
scalar NetworkMultiRadioIPv4.mobileHost[6].wlan[2].mac 	"CW medio" 	102.33516483516
scalar NetworkMultiRadioIPv4.mobileHost[6].wlan[2].mac 	"CW max" 	881
scalar NetworkMultiRadioIPv4.mobileHost[6].wlan[2].mac 	"CW dev" 	169.97904575027
scalar NetworkMultiRadioIPv4.mobileHost[6].wlan[2].mac 	"Mean service time" 	0.011345505718106
scalar NetworkMultiRadioIPv4.mobileHost[6].wlan[2].mac 	numSent 	47
scalar NetworkMultiRadioIPv4.mobileHost[6].wlan[2].mac 	numSentWithoutRetry 	16
scalar NetworkMultiRadioIPv4.mobileHost[6].wlan[2].mac 	numReceived 	521
scalar NetworkMultiRadioIPv4.mobileHost[6].wlan[2].mac 	numSelfReceived 	72
scalar NetworkMultiRadioIPv4.mobileHost[6].wlan[2].mac 	numSentBroadcast 	19
scalar NetworkMultiRadioIPv4.mobileHost[6].wlan[2].mac 	numReceivedBroadcast 	1
scalar NetworkMultiRadioIPv4.mobileHost[6].wlan[2].mac 	numReceivedOther 	8338
scalar NetworkMultiRadioIPv4.mobileHost[6].wlan[2].mac 	numCollision 	9326
scalar NetworkMultiRadioIPv4.mobileHost[6].wlan[2].mac 	numGivenUp 	5
scalar NetworkMultiRadioIPv4.mobileHost[6].wlan[2].mac 	numAckSend 	521
scalar NetworkMultiRadioIPv4.mobileHost[6].wlan[2].mac 	numRetry 	118
scalar NetworkMultiRadioIPv4.mobileHost[6].manetRouting.manetmanager.manetroutingprotocol 	"Position X" 	0
scalar NetworkMultiRadioIPv4.mobileHost[6].manetRouting.manetmanager.manetroutingprotocol 	"Position Y" 	150
scalar NetworkMultiRadioIPv4.mobileHost[6].manetRouting.manetmanager.manetroutingprotocol 	lonelyCount 	0
scalar NetworkMultiRadioIPv4.mobileHost[6].manetRouting.manetmanager.manetroutingprotocol 	noNextHopCount 	0
scalar NetworkMultiRadioIPv4.mobileHost[7].udpApp[0] 	"Total send" 	928
scalar NetworkMultiRadioIPv4.mobileHost[7].udpApp[0] 	"Total received" 	166
scalar NetworkMultiRadioIPv4.mobileHost[7].udpApp[0] 	"Total deleted" 	446
scalar NetworkMultiRadioIPv4.mobileHost[7].udpApp[0] 	"Mean delay" 	1.6825389390917
scalar NetworkMultiRadioIPv4.mobileHost[7].udpApp[0] 	"Min delay" 	0.028110392364
scalar NetworkMultiRadioIPv4.mobileHost[7].udpApp[0] 	"Max delay" 	3.985247787249
scalar NetworkMultiRadioIPv4.mobileHost[7].udpApp[0] 	"Deviation delay" 	1.1262627483798
scalar NetworkMultiRadioIPv4.mobileHost[7].udpApp[0] 	"TTL28 NumOfBurstsReceived" 	3
scalar NetworkMultiRadioIPv4.mobileHost[7].udpApp[0] 	"TTL28 NumOfPacketsReceived" 	166
scalar NetworkMultiRadioIPv4.mobileHost[7].udpApp[1] 	"Total send" 	929
scalar NetworkMultiRadioIPv4.mobileHost[7].udpApp[1] 	"Total received" 	0
scalar NetworkMultiRadioIPv4.mobileHost[7].udpApp[1] 	"Total deleted" 	0
scalar NetworkMultiRadioIPv4.mobileHost[7].udpApp[1] 	"Mean delay" 	0
scalar NetworkMultiRadioIPv4.mobileHost[7].udpApp[1] 	"Min delay" 	0
scalar NetworkMultiRadioIPv4.mobileHost[7].udpApp[1] 	"Max delay" 	0
scalar NetworkMultiRadioIPv4.mobileHost[7].udpApp[1] 	"Deviation delay" 	nan
scalar NetworkMultiRadioIPv4.mobileHost[7].udpApp[2] 	"Total send" 	928
scalar NetworkMultiRadioIPv4.mobileHost[7].udpApp[2] 	"Total received" 	0
scalar NetworkMultiRadioIPv4.mobileHost[7].udpApp[2] 	"Total deleted" 	0
scalar NetworkMultiRadioIPv4.mobileHost[7].udpApp[2] 	"Mean delay" 	0
scalar NetworkMultiRadioIPv4.mobileHost[7].udpApp[2] 	"Min delay" 	0
scalar NetworkMultiRadioIPv4.mobileHost[7].udpApp[2] 	"Max delay" 	0
scalar NetworkMultiRadioIPv4.mobileHost[7].udpApp[2] 	"Deviation delay" 	nan
scalar NetworkMultiRadioIPv4.mobileHost[7].pingApp 	"Pings sent" 	0
scalar NetworkMultiRadioIPv4.mobileHost[7].wlan[0].mgmt 	"packets received by queue" 	2687
scalar NetworkMultiRadioIPv4.mobileHost[7].wlan[0].mgmt 	"packets dropped by queue" 	381
scalar NetworkMultiRadioIPv4.mobileHost[7].wlan[0].mac 	"Mean Frame Length" 	222
scalar NetworkMultiRadioIPv4.mobileHost[7].wlan[0].mac 	"Frame Length stddev" 	0
scalar NetworkMultiRadioIPv4.mobileHost[7].wlan[0].mac 	"Sent Throughput" 	0.17280459957651
scalar NetworkMultiRadioIPv4.mobileHost[7].wlan[0].mac 	"CW medio" 	112.58199591479
scalar NetworkMultiRadioIPv4.mobileHost[7].wlan[0].mac 	"CW max" 	1022
scalar NetworkMultiRadioIPv4.mobileHost[7].wlan[0].mac 	"CW dev" 	188.97377725352
scalar NetworkMultiRadioIPv4.mobileHost[7].wlan[0].mac 	"Mean service time" 	0.6786388037814
scalar NetworkMultiRadioIPv4.mobileHost[7].wlan[0].mac 	numSent 	1946
scalar NetworkMultiRadioIPv4.mobileHost[7].wlan[0].mac 	numSentWithoutRetry 	667
scalar NetworkMultiRadioIPv4.mobileHost[7].wlan[0].mac 	numReceived 	268
scalar NetworkMultiRadioIPv4.mobileHost[7].wlan[0].mac 	numSelfReceived 	2209
scalar NetworkMultiRadioIPv4.mobileHost[7].wlan[0].mac 	numSentBroadcast 	15
scalar NetworkMultiRadioIPv4.mobileHost[7].wlan[0].mac 	numReceivedBroadcast 	1
scalar NetworkMultiRadioIPv4.mobileHost[7].wlan[0].mac 	numReceivedOther 	9466
scalar NetworkMultiRadioIPv4.mobileHost[7].wlan[0].mac 	numCollision 	10004
scalar NetworkMultiRadioIPv4.mobileHost[7].wlan[0].mac 	numGivenUp 	245
scalar NetworkMultiRadioIPv4.mobileHost[7].wlan[0].mac 	numAckSend 	268
scalar NetworkMultiRadioIPv4.mobileHost[7].wlan[0].mac 	numRetry 	4649
scalar NetworkMultiRadioIPv4.mobileHost[7].wlan[1].mgmt 	"packets received by queue" 	566
scalar NetworkMultiRadioIPv4.mobileHost[7].wlan[1].mgmt 	"packets dropped by queue" 	0
scalar NetworkMultiRadioIPv4.mobileHost[7].wlan[1].mac 	"Mean Frame Length" 	222
scalar NetworkMultiRadioIPv4.mobileHost[7].wlan[1].mac 	"Frame Length stddev" 	0
scalar NetworkMultiRadioIPv4.mobileHost[7].wlan[1].mac 	"Sent Throughput" 	0.044222348709713
scalar NetworkMultiRadioIPv4.mobileHost[7].wlan[1].mac 	"CW medio" 	103.3860955928
scalar NetworkMultiRadioIPv4.mobileHost[7].wlan[1].mac 	"CW max" 	1020
scalar NetworkMultiRadioIPv4.mobileHost[7].wlan[1].mac 	"CW dev" 	182.43363099931
scalar NetworkMultiRadioIPv4.mobileHost[7].wlan[1].mac 	"Mean service time" 	0.2607028209149
scalar NetworkMultiRadioIPv4.mobileHost[7].wlan[1].mac 	numSent 	498
scalar NetworkMultiRadioIPv4.mobileHost[7].wlan[1].mac 	numSentWithoutRetry 	184
scalar NetworkMultiRadioIPv4.mobileHost[7].wlan[1].mac 	numReceived 	2813
scalar NetworkMultiRadioIPv4.mobileHost[7].wlan[1].mac 	numSelfReceived 	566
scalar NetworkMultiRadioIPv4.mobileHost[7].wlan[1].mac 	numSentBroadcast 	19
scalar NetworkMultiRadioIPv4.mobileHost[7].wlan[1].mac 	numReceivedBroadcast 	0
scalar NetworkMultiRadioIPv4.mobileHost[7].wlan[1].mac 	numReceivedOther 	14773
scalar NetworkMultiRadioIPv4.mobileHost[7].wlan[1].mac 	numCollision 	19873
scalar NetworkMultiRadioIPv4.mobileHost[7].wlan[1].mac 	numGivenUp 	47
scalar NetworkMultiRadioIPv4.mobileHost[7].wlan[1].mac 	numAckSend 	2813
scalar NetworkMultiRadioIPv4.mobileHost[7].wlan[1].mac 	numRetry 	1060
scalar NetworkMultiRadioIPv4.mobileHost[7].wlan[2].mgmt 	"packets received by queue" 	2711
scalar NetworkMultiRadioIPv4.mobileHost[7].wlan[2].mgmt 	"packets dropped by queue" 	0
scalar NetworkMultiRadioIPv4.mobileHost[7].wlan[2].mac 	"Mean Frame Length" 	222
scalar NetworkMultiRadioIPv4.mobileHost[7].wlan[2].mac 	"Frame Length stddev" 	0
scalar NetworkMultiRadioIPv4.mobileHost[7].wlan[2].mac 	"Sent Throughput" 	0.21089975539271
scalar NetworkMultiRadioIPv4.mobileHost[7].wlan[2].mac 	"CW medio" 	105.1859074363
scalar NetworkMultiRadioIPv4.mobileHost[7].wlan[2].mac 	"CW max" 	1023
scalar NetworkMultiRadioIPv4.mobileHost[7].wlan[2].mac 	"CW dev" 	182.80150033809
scalar NetworkMultiRadioIPv4.mobileHost[7].wlan[2].mac 	"Mean service time" 	0.37090450135151
scalar NetworkMultiRadioIPv4.mobileHost[7].wlan[2].mac 	numSent 	2375
scalar NetworkMultiRadioIPv4.mobileHost[7].wlan[2].mac 	numSentWithoutRetry 	920
scalar NetworkMultiRadioIPv4.mobileHost[7].wlan[2].mac 	numReceived 	660
scalar NetworkMultiRadioIPv4.mobileHost[7].wlan[2].mac 	numSelfReceived 	2635
scalar NetworkMultiRadioIPv4.mobileHost[7].wlan[2].mac 	numSentBroadcast 	18
scalar NetworkMultiRadioIPv4.mobileHost[7].wlan[2].mac 	numReceivedBroadcast 	0
scalar NetworkMultiRadioIPv4.mobileHost[7].wlan[2].mac 	numReceivedOther 	9765
scalar NetworkMultiRadioIPv4.mobileHost[7].wlan[2].mac 	numCollision 	9122
scalar NetworkMultiRadioIPv4.mobileHost[7].wlan[2].mac 	numGivenUp 	239
scalar NetworkMultiRadioIPv4.mobileHost[7].wlan[2].mac 	numAckSend 	660
scalar NetworkMultiRadioIPv4.mobileHost[7].wlan[2].mac 	numRetry 	5070
scalar NetworkMultiRadioIPv4.mobileHost[7].manetRouting.manetmanager.manetroutingprotocol 	"Position X" 	150
scalar NetworkMultiRadioIPv4.mobileHost[7].manetRouting.manetmanager.manetroutingprotocol 	"Position Y" 	150
scalar NetworkMultiRadioIPv4.mobileHost[7].manetRouting.manetmanager.manetroutingprotocol 	lonelyCount 	0
scalar NetworkMultiRadioIPv4.mobileHost[7].manetRouting.manetmanager.manetroutingprotocol 	noNextHopCount 	0
scalar NetworkMultiRadioIPv4.mobileHost[8].udpApp[0] 	"Total send" 	927
scalar NetworkMultiRadioIPv4.mobileHost[8].udpApp[0] 	"Total received" 	0
scalar NetworkMultiRadioIPv4.mobileHost[8].udpApp[0] 	"Total deleted" 	0
scalar NetworkMultiRadioIPv4.mobileHost[8].udpApp[0] 	"Mean delay" 	0
scalar NetworkMultiRadioIPv4.mobileHost[8].udpApp[0] 	"Min delay" 	0
scalar NetworkMultiRadioIPv4.mobileHost[8].udpApp[0] 	"Max delay" 	0
scalar NetworkMultiRadioIPv4.mobileHost[8].udpApp[0] 	"Deviation delay" 	nan
scalar NetworkMultiRadioIPv4.mobileHost[8].udpApp[1] 	"Total send" 	929
scalar NetworkMultiRadioIPv4.mobileHost[8].udpApp[1] 	"Total received" 	0
scalar NetworkMultiRadioIPv4.mobileHost[8].udpApp[1] 	"Total deleted" 	0
scalar NetworkMultiRadioIPv4.mobileHost[8].udpApp[1] 	"Mean delay" 	0
scalar NetworkMultiRadioIPv4.mobileHost[8].udpApp[1] 	"Min delay" 	0
scalar NetworkMultiRadioIPv4.mobileHost[8].udpApp[1] 	"Max delay" 	0
scalar NetworkMultiRadioIPv4.mobileHost[8].udpApp[1] 	"Deviation delay" 	nan
scalar NetworkMultiRadioIPv4.mobileHost[8].udpApp[2] 	"Total send" 	928
scalar NetworkMultiRadioIPv4.mobileHost[8].udpApp[2] 	"Total received" 	0
scalar NetworkMultiRadioIPv4.mobileHost[8].udpApp[2] 	"Total deleted" 	0
scalar NetworkMultiRadioIPv4.mobileHost[8].udpApp[2] 	"Mean delay" 	0
scalar NetworkMultiRadioIPv4.mobileHost[8].udpApp[2] 	"Min delay" 	0
scalar NetworkMultiRadioIPv4.mobileHost[8].udpApp[2] 	"Max delay" 	0
scalar NetworkMultiRadioIPv4.mobileHost[8].udpApp[2] 	"Deviation delay" 	nan
scalar NetworkMultiRadioIPv4.mobileHost[8].pingApp 	"Pings sent" 	0
scalar NetworkMultiRadioIPv4.mobileHost[8].wlan[0].mgmt 	"packets received by queue" 	897
scalar NetworkMultiRadioIPv4.mobileHost[8].wlan[0].mgmt 	"packets dropped by queue" 	2
scalar NetworkMultiRadioIPv4.mobileHost[8].wlan[0].mac 	"Mean Frame Length" 	222
scalar NetworkMultiRadioIPv4.mobileHost[8].wlan[0].mac 	"Frame Length stddev" 	0
scalar NetworkMultiRadioIPv4.mobileHost[8].wlan[0].mac 	"Sent Throughput" 	0.068020721107711
scalar NetworkMultiRadioIPv4.mobileHost[8].wlan[0].mac 	"CW medio" 	112.53868402025
scalar NetworkMultiRadioIPv4.mobileHost[8].wlan[0].mac 	"CW max" 	1022
scalar NetworkMultiRadioIPv4.mobileHost[8].wlan[0].mac 	"CW dev" 	191.95003056883
scalar NetworkMultiRadioIPv4.mobileHost[8].wlan[0].mac 	"Mean service time" 	0.29172455022566
scalar NetworkMultiRadioIPv4.mobileHost[8].wlan[0].mac 	numSent 	766
scalar NetworkMultiRadioIPv4.mobileHost[8].wlan[0].mac 	numSentWithoutRetry 	251
scalar NetworkMultiRadioIPv4.mobileHost[8].wlan[0].mac 	numReceived 	1021
scalar NetworkMultiRadioIPv4.mobileHost[8].wlan[0].mac 	numSelfReceived 	889
scalar NetworkMultiRadioIPv4.mobileHost[8].wlan[0].mac 	numSentBroadcast 	18
scalar NetworkMultiRadioIPv4.mobileHost[8].wlan[0].mac 	numReceivedBroadcast 	0
scalar NetworkMultiRadioIPv4.mobileHost[8].wlan[0].mac 	numReceivedOther 	13930
scalar NetworkMultiRadioIPv4.mobileHost[8].wlan[0].mac 	numCollision 	16519
scalar NetworkMultiRadioIPv4.mobileHost[8].wlan[0].mac 	numGivenUp 	102
scalar NetworkMultiRadioIPv4.mobileHost[8].wlan[0].mac 	numAckSend 	1021
scalar NetworkMultiRadioIPv4.mobileHost[8].wlan[0].mac 	numRetry 	1918
scalar NetworkMultiRadioIPv4.mobileHost[8].wlan[1].mgmt 	"packets received by queue" 	3016
scalar NetworkMultiRadioIPv4.mobileHost[8].wlan[1].mgmt 	"packets dropped by queue" 	1440
scalar NetworkMultiRadioIPv4.mobileHost[8].wlan[1].mac 	"Mean Frame Length" 	222
scalar NetworkMultiRadioIPv4.mobileHost[8].wlan[1].mac 	"Frame Length stddev" 	0
scalar NetworkMultiRadioIPv4.mobileHost[8].wlan[1].mac 	"Sent Throughput" 	0.11446306724261
scalar NetworkMultiRadioIPv4.mobileHost[8].wlan[1].mac 	"CW medio" 	115.94400848356
scalar NetworkMultiRadioIPv4.mobileHost[8].wlan[1].mac 	"CW max" 	1014
scalar NetworkMultiRadioIPv4.mobileHost[8].wlan[1].mac 	"CW dev" 	193.43424629754
scalar NetworkMultiRadioIPv4.mobileHost[8].wlan[1].mac 	"Mean service time" 	1.1492304158392
scalar NetworkMultiRadioIPv4.mobileHost[8].wlan[1].mac 	numSent 	1289
scalar NetworkMultiRadioIPv4.mobileHost[8].wlan[1].mac 	numSentWithoutRetry 	453
scalar NetworkMultiRadioIPv4.mobileHost[8].wlan[1].mac 	numReceived 	1565
scalar NetworkMultiRadioIPv4.mobileHost[8].wlan[1].mac 	numSelfReceived 	1489
scalar NetworkMultiRadioIPv4.mobileHost[8].wlan[1].mac 	numSentBroadcast 	10
scalar NetworkMultiRadioIPv4.mobileHost[8].wlan[1].mac 	numReceivedBroadcast 	4
scalar NetworkMultiRadioIPv4.mobileHost[8].wlan[1].mac 	numReceivedOther 	12672
scalar NetworkMultiRadioIPv4.mobileHost[8].wlan[1].mac 	numCollision 	14631
scalar NetworkMultiRadioIPv4.mobileHost[8].wlan[1].mac 	numGivenUp 	187
scalar NetworkMultiRadioIPv4.mobileHost[8].wlan[1].mac 	numAckSend 	1565
scalar NetworkMultiRadioIPv4.mobileHost[8].wlan[1].mac 	numRetry 	3231
scalar NetworkMultiRadioIPv4.mobileHost[8].wlan[2].mgmt 	"packets received by queue" 	2995
scalar NetworkMultiRadioIPv4.mobileHost[8].wlan[2].mgmt 	"packets dropped by queue" 	1178
scalar NetworkMultiRadioIPv4.mobileHost[8].wlan[2].mac 	"Mean Frame Length" 	222
scalar NetworkMultiRadioIPv4.mobileHost[8].wlan[2].mac 	"Frame Length stddev" 	0
scalar NetworkMultiRadioIPv4.mobileHost[8].wlan[2].mac 	"Sent Throughput" 	0.13666304149447
scalar NetworkMultiRadioIPv4.mobileHost[8].wlan[2].mac 	"CW medio" 	108.09972516686
scalar NetworkMultiRadioIPv4.mobileHost[8].wlan[2].mac 	"CW max" 	1021
scalar NetworkMultiRadioIPv4.mobileHost[8].wlan[2].mac 	"CW dev" 	182.74025031433
scalar NetworkMultiRadioIPv4.mobileHost[8].wlan[2].mac 	"Mean service time" 	0.95315509805196
scalar NetworkMultiRadioIPv4.mobileHost[8].wlan[2].mac 	numSent 	1539
scalar NetworkMultiRadioIPv4.mobileHost[8].wlan[2].mac 	numSentWithoutRetry 	564
scalar NetworkMultiRadioIPv4.mobileHost[8].wlan[2].mac 	numReceived 	1481
scalar NetworkMultiRadioIPv4.mobileHost[8].wlan[2].mac 	numSelfReceived 	1717
scalar NetworkMultiRadioIPv4.mobileHost[8].wlan[2].mac 	numSentBroadcast 	10
scalar NetworkMultiRadioIPv4.mobileHost[8].wlan[2].mac 	numReceivedBroadcast 	1
scalar NetworkMultiRadioIPv4.mobileHost[8].wlan[2].mac 	numReceivedOther 	14975
scalar NetworkMultiRadioIPv4.mobileHost[8].wlan[2].mac 	numCollision 	15097
scalar NetworkMultiRadioIPv4.mobileHost[8].wlan[2].mac 	numGivenUp 	165
scalar NetworkMultiRadioIPv4.mobileHost[8].wlan[2].mac 	numAckSend 	1481
scalar NetworkMultiRadioIPv4.mobileHost[8].wlan[2].mac 	numRetry 	3382
scalar NetworkMultiRadioIPv4.mobileHost[8].manetRouting.manetmanager.manetroutingprotocol 	"Position X" 	300
scalar NetworkMultiRadioIPv4.mobileHost[8].manetRouting.manetmanager.manetroutingprotocol 	"Position Y" 	150
scalar NetworkMultiRadioIPv4.mobileHost[8].manetRouting.manetmanager.manetroutingprotocol 	lonelyCount 	0
scalar NetworkMultiRadioIPv4.mobileHost[8].manetRouting.manetmanager.manetroutingprotocol 	noNextHopCount 	0
scalar NetworkMultiRadioIPv4.mobileHost[9].udpApp[0] 	"Total send" 	927
scalar NetworkMultiRadioIPv4.mobileHost[9].udpApp[0] 	"Total received" 	250
scalar NetworkMultiRadioIPv4.mobileHost[9].udpApp[0] 	"Total deleted" 	608
scalar NetworkMultiRadioIPv4.mobileHost[9].udpApp[0] 	"Mean delay" 	1.5091795532384
scalar NetworkMultiRadioIPv4.mobileHost[9].udpApp[0] 	"Min delay" 	0.001492153375
scalar NetworkMultiRadioIPv4.mobileHost[9].udpApp[0] 	"Max delay" 	2.696246773296
scalar NetworkMultiRadioIPv4.mobileHost[9].udpApp[0] 	"Deviation delay" 	0.69383445435382
scalar NetworkMultiRadioIPv4.mobileHost[9].udpApp[0] 	"TTL29 NumOfBurstsReceived" 	2
scalar NetworkMultiRadioIPv4.mobileHost[9].udpApp[0] 	"TTL29 NumOfPacketsReceived" 	146
scalar NetworkMultiRadioIPv4.mobileHost[9].udpApp[0] 	"TTL30 NumOfBurstsReceived" 	1
scalar NetworkMultiRadioIPv4.mobileHost[9].udpApp[0] 	"TTL30 NumOfPacketsReceived" 	104
scalar NetworkMultiRadioIPv4.mobileHost[9].udpApp[1] 	"Total send" 	0
scalar NetworkMultiRadioIPv4.mobileHost[9].udpApp[1] 	"Total received" 	0
scalar NetworkMultiRadioIPv4.mobileHost[9].udpApp[1] 	"Total deleted" 	0
scalar NetworkMultiRadioIPv4.mobileHost[9].udpApp[1] 	"Mean delay" 	0
scalar NetworkMultiRadioIPv4.mobileHost[9].udpApp[1] 	"Min delay" 	0
scalar NetworkMultiRadioIPv4.mobileHost[9].udpApp[1] 	"Max delay" 	0
scalar NetworkMultiRadioIPv4.mobileHost[9].udpApp[1] 	"Deviation delay" 	nan
scalar NetworkMultiRadioIPv4.mobileHost[9].udpApp[2] 	"Total send" 	928
scalar NetworkMultiRadioIPv4.mobileHost[9].udpApp[2] 	"Total received" 	0
scalar NetworkMultiRadioIPv4.mobileHost[9].udpApp[2] 	"Total deleted" 	0
scalar NetworkMultiRadioIPv4.mobileHost[9].udpApp[2] 	"Mean delay" 	0
scalar NetworkMultiRadioIPv4.mobileHost[9].udpApp[2] 	"Min delay" 	0
scalar NetworkMultiRadioIPv4.mobileHost[9].udpApp[2] 	"Max delay" 	0
scalar NetworkMultiRadioIPv4.mobileHost[9].udpApp[2] 	"Deviation delay" 	nan
scalar NetworkMultiRadioIPv4.mobileHost[9].pingApp 	"Pings sent" 	0
scalar NetworkMultiRadioIPv4.mobileHost[9].wlan[0].mgmt 	"packets received by queue" 	2466
scalar NetworkMultiRadioIPv4.mobileHost[9].wlan[0].mgmt 	"packets dropped by queue" 	474
scalar NetworkMultiRadioIPv4.mobileHost[9].wlan[0].mac 	"Mean Frame Length" 	222
scalar NetworkMultiRadioIPv4.mobileHost[9].wlan[0].mac 	"Frame Length stddev" 	0
scalar NetworkMultiRadioIPv4.mobileHost[9].wlan[0].mac 	"Sent Throughput" 	0.15069342522165
scalar NetworkMultiRadioIPv4.mobileHost[9].wlan[0].mac 	"CW medio" 	103.79175704989
scalar NetworkMultiRadioIPv4.mobileHost[9].wlan[0].mac 	"CW max" 	1023
scalar NetworkMultiRadioIPv4.mobileHost[9].wlan[0].mac 	"CW dev" 	179.40149503536
scalar NetworkMultiRadioIPv4.mobileHost[9].wlan[0].mac 	"Mean service time" 	0.77718952336317
scalar NetworkMultiRadioIPv4.mobileHost[9].wlan[0].mac 	numSent 	1697
scalar NetworkMultiRadioIPv4.mobileHost[9].wlan[0].mac 	numSentWithoutRetry 	633
scalar NetworkMultiRadioIPv4.mobileHost[9].wlan[0].mac 	numReceived 	1213
scalar NetworkMultiRadioIPv4.mobileHost[9].wlan[0].mac 	numSelfReceived 	1899
scalar NetworkMultiRadioIPv4.mobileHost[9].wlan[0].mac 	numSentBroadcast 	13
scalar NetworkMultiRadioIPv4.mobileHost[9].wlan[0].mac 	numReceivedBroadcast 	2
scalar NetworkMultiRadioIPv4.mobileHost[9].wlan[0].mac 	numReceivedOther 	13857
scalar NetworkMultiRadioIPv4.mobileHost[9].wlan[0].mac 	numCollision 	14762
scalar NetworkMultiRadioIPv4.mobileHost[9].wlan[0].mac 	numGivenUp 	186
scalar NetworkMultiRadioIPv4.mobileHost[9].wlan[0].mac 	numAckSend 	1213
scalar NetworkMultiRadioIPv4.mobileHost[9].wlan[0].mac 	numRetry 	3642
scalar NetworkMultiRadioIPv4.mobileHost[9].wlan[1].mgmt 	"packets received by queue" 	623
scalar NetworkMultiRadioIPv4.mobileHost[9].wlan[1].mgmt 	"packets dropped by queue" 	0
scalar NetworkMultiRadioIPv4.mobileHost[9].wlan[1].mac 	"Mean Frame Length" 	222
scalar NetworkMultiRadioIPv4.mobileHost[9].wlan[1].mac 	"Frame Length stddev" 	0
scalar NetworkMultiRadioIPv4.mobileHost[9].wlan[1].mac 	"Sent Throughput" 	0.0488399433541
scalar NetworkMultiRadioIPv4.mobileHost[9].wlan[1].mac 	"CW medio" 	104.19794050343
scalar NetworkMultiRadioIPv4.mobileHost[9].wlan[1].mac 	"CW max" 	1021
scalar NetworkMultiRadioIPv4.mobileHost[9].wlan[1].mac 	"CW dev" 	182.46392796952
scalar NetworkMultiRadioIPv4.mobileHost[9].wlan[1].mac 	"Mean service time" 	0.092059496244727
scalar NetworkMultiRadioIPv4.mobileHost[9].wlan[1].mac 	numSent 	550
scalar NetworkMultiRadioIPv4.mobileHost[9].wlan[1].mac 	numSentWithoutRetry 	191
scalar NetworkMultiRadioIPv4.mobileHost[9].wlan[1].mac 	numReceived 	1141
scalar NetworkMultiRadioIPv4.mobileHost[9].wlan[1].mac 	numSelfReceived 	623
scalar NetworkMultiRadioIPv4.mobileHost[9].wlan[1].mac 	numSentBroadcast 	18
scalar NetworkMultiRadioIPv4.mobileHost[9].wlan[1].mac 	numReceivedBroadcast 	1
scalar NetworkMultiRadioIPv4.mobileHost[9].wlan[1].mac 	numReceivedOther 	16192
scalar NetworkMultiRadioIPv4.mobileHost[9].wlan[1].mac 	numCollision 	15920
scalar NetworkMultiRadioIPv4.mobileHost[9].wlan[1].mac 	numGivenUp 	52
scalar NetworkMultiRadioIPv4.mobileHost[9].wlan[1].mac 	numAckSend 	1141
scalar NetworkMultiRadioIPv4.mobileHost[9].wlan[1].mac 	numRetry 	1178
scalar NetworkMultiRadioIPv4.mobileHost[9].wlan[2].mgmt 	"packets received by queue" 	2385
scalar NetworkMultiRadioIPv4.mobileHost[9].wlan[2].mgmt 	"packets dropped by queue" 	166
scalar NetworkMultiRadioIPv4.mobileHost[9].wlan[2].mac 	"Mean Frame Length" 	222
scalar NetworkMultiRadioIPv4.mobileHost[9].wlan[2].mac 	"Frame Length stddev" 	0
scalar NetworkMultiRadioIPv4.mobileHost[9].wlan[2].mac 	"Sent Throughput" 	0.17822139329396
scalar NetworkMultiRadioIPv4.mobileHost[9].wlan[2].mac 	"CW medio" 	102.00613397902
scalar NetworkMultiRadioIPv4.mobileHost[9].wlan[2].mac 	"CW max" 	1022
scalar NetworkMultiRadioIPv4.mobileHost[9].wlan[2].mac 	"CW dev" 	179.90924584327
scalar NetworkMultiRadioIPv4.mobileHost[9].wlan[2].mac 	"Mean service time" 	0.60830952065238
scalar NetworkMultiRadioIPv4.mobileHost[9].wlan[2].mac 	numSent 	2007
scalar NetworkMultiRadioIPv4.mobileHost[9].wlan[2].mac 	numSentWithoutRetry 	790
scalar NetworkMultiRadioIPv4.mobileHost[9].wlan[2].mac 	numReceived 	2079
scalar NetworkMultiRadioIPv4.mobileHost[9].wlan[2].mac 	numSelfReceived 	2213
scalar NetworkMultiRadioIPv4.mobileHost[9].wlan[2].mac 	numSentBroadcast 	14
scalar NetworkMultiRadioIPv4.mobileHost[9].wlan[2].mac 	numReceivedBroadcast 	1
scalar NetworkMultiRadioIPv4.mobileHost[9].wlan[2].mac 	numReceivedOther 	12944
scalar NetworkMultiRadioIPv4.mobileHost[9].wlan[2].mac 	numCollision 	13171
scalar NetworkMultiRadioIPv4.mobileHost[9].wlan[2].mac 	numGivenUp 	189
scalar NetworkMultiRadioIPv4.mobileHost[9].wlan[2].mac 	numAckSend 	2079
scalar NetworkMultiRadioIPv4.mobileHost[9].wlan[2].mac 	numRetry 	3990
scalar NetworkMultiRadioIPv4.mobileHost[9].manetRouting.manetmanager.manetroutingprotocol 	"Position X" 	450
scalar NetworkMultiRadioIPv4.mobileHost[9].manetRouting.manetmanager.manetroutingprotocol 	"Position Y" 	150
scalar NetworkMultiRadioIPv4.mobileHost[9].manetRouting.manetmanager.manetroutingprotocol 	lonelyCount 	0
scalar NetworkMultiRadioIPv4.mobileHost[9].manetRouting.manetmanager.manetroutingprotocol 	noNextHopCount 	0
scalar NetworkMultiRadioIPv4.mobileHost[10].udpApp[0] 	"Total send" 	927
scalar NetworkMultiRadioIPv4.mobileHost[10].udpApp[0] 	"Total received" 	804
scalar NetworkMultiRadioIPv4.mobileHost[10].udpApp[0] 	"Total deleted" 	392
scalar NetworkMultiRadioIPv4.mobileHost[10].udpApp[0] 	"Mean delay" 	0.093798060850706
scalar NetworkMultiRadioIPv4.mobileHost[10].udpApp[0] 	"Min delay" 	9.05e-05
scalar NetworkMultiRadioIPv4.mobileHost[10].udpApp[0] 	"Max delay" 	2.185652405268
scalar NetworkMultiRadioIPv4.mobileHost[10].udpApp[0] 	"Deviation delay" 	0.31261770318069
scalar NetworkMultiRadioIPv4.mobileHost[10].udpApp[0] 	"TTL29 NumOfBurstsReceived" 	1
scalar NetworkMultiRadioIPv4.mobileHost[10].udpApp[0] 	"TTL29 NumOfPacketsReceived" 	62
scalar NetworkMultiRadioIPv4.mobileHost[10].udpApp[0] 	"TTL31 NumOfBurstsReceived" 	1
scalar NetworkMultiRadioIPv4.mobileHost[10].udpApp[0] 	"TTL31 NumOfPacketsReceived" 	742
scalar NetworkMultiRadioIPv4.mobileHost[10].udpApp[1] 	"Total send" 	928
scalar NetworkMultiRadioIPv4.mobileHost[10].udpApp[1] 	"Total received" 	0
scalar NetworkMultiRadioIPv4.mobileHost[10].udpApp[1] 	"Total deleted" 	0
scalar NetworkMultiRadioIPv4.mobileHost[10].udpApp[1] 	"Mean delay" 	0
scalar NetworkMultiRadioIPv4.mobileHost[10].udpApp[1] 	"Min delay" 	0
scalar NetworkMultiRadioIPv4.mobileHost[10].udpApp[1] 	"Max delay" 	0
scalar NetworkMultiRadioIPv4.mobileHost[10].udpApp[1] 	"Deviation delay" 	nan
scalar NetworkMultiRadioIPv4.mobileHost[10].udpApp[2] 	"Total send" 	928
scalar NetworkMultiRadioIPv4.mobileHost[10].udpApp[2] 	"Total received" 	0
scalar NetworkMultiRadioIPv4.mobileHost[10].udpApp[2] 	"Total deleted" 	0
scalar NetworkMultiRadioIPv4.mobileHost[10].udpApp[2] 	"Mean delay" 	0
scalar NetworkMultiRadioIPv4.mobileHost[10].udpApp[2] 	"Min delay" 	0
scalar NetworkMultiRadioIPv4.mobileHost[10].udpApp[2] 	"Max delay" 	0
scalar NetworkMultiRadioIPv4.mobileHost[10].udpApp[2] 	"Deviation delay" 	nan
scalar NetworkMultiRadioIPv4.mobileHost[10].pingApp 	"Pings sent" 	0
scalar NetworkMultiRadioIPv4.mobileHost[10].wlan[0].mgmt 	"packets received by queue" 	172
scalar NetworkMultiRadioIPv4.mobileHost[10].wlan[0].mgmt 	"packets dropped by queue" 	0
scalar NetworkMultiRadioIPv4.mobileHost[10].wlan[0].mac 	"Mean Frame Length" 	222
scalar NetworkMultiRadioIPv4.mobileHost[10].wlan[0].mac 	"Frame Length stddev" 	0
scalar NetworkMultiRadioIPv4.mobileHost[10].wlan[0].mac 	"Sent Throughput" 	0.012343185684036
scalar NetworkMultiRadioIPv4.mobileHost[10].wlan[0].mac 	"CW medio" 	101.81223628692
scalar NetworkMultiRadioIPv4.mobileHost[10].wlan[0].mac 	"CW max" 	1021
scalar NetworkMultiRadioIPv4.mobileHost[10].wlan[0].mac 	"CW dev" 	174.11497919776
scalar NetworkMultiRadioIPv4.mobileHost[10].wlan[0].mac 	"Mean service time" 	0.079411453523655
scalar NetworkMultiRadioIPv4.mobileHost[10].wlan[0].mac 	numSent 	139
scalar NetworkMultiRadioIPv4.mobileHost[10].wlan[0].mac 	numSentWithoutRetry 	52
scalar NetworkMultiRadioIPv4.mobileHost[10].wlan[0].mac 	numReceived 	956
scalar NetworkMultiRadioIPv4.mobileHost[10].wlan[0].mac 	numSelfReceived 	172
scalar NetworkMultiRadioIPv4.mobileHost[10].wlan[0].mac 	numSentBroadcast 	18
scalar NetworkMultiRadioIPv4.mobileHost[10].wlan[0].mac 	numReceivedBroadcast 	2
scalar NetworkMultiRadioIPv4.mobileHost[10].wlan[0].mac 	numReceivedOther 	17933
scalar NetworkMultiRadioIPv4.mobileHost[10].wlan[0].mac 	numCollision 	17892
scalar NetworkMultiRadioIPv4.mobileHost[10].wlan[0].mac 	numGivenUp 	14
scalar NetworkMultiRadioIPv4.mobileHost[10].wlan[0].mac 	numAckSend 	956
scalar NetworkMultiRadioIPv4.mobileHost[10].wlan[0].mac 	numRetry 	301
scalar NetworkMultiRadioIPv4.mobileHost[10].wlan[1].mgmt 	"packets received by queue" 	2682
scalar NetworkMultiRadioIPv4.mobileHost[10].wlan[1].mgmt 	"packets dropped by queue" 	403
scalar NetworkMultiRadioIPv4.mobileHost[10].wlan[1].mac 	"Mean Frame Length" 	222
scalar NetworkMultiRadioIPv4.mobileHost[10].wlan[1].mac 	"Frame Length stddev" 	0
scalar NetworkMultiRadioIPv4.mobileHost[10].wlan[1].mac 	"Sent Throughput" 	0.17662299514783
scalar NetworkMultiRadioIPv4.mobileHost[10].wlan[1].mac 	"CW medio" 	107.53280127694
scalar NetworkMultiRadioIPv4.mobileHost[10].wlan[1].mac 	"CW max" 	1023
scalar NetworkMultiRadioIPv4.mobileHost[10].wlan[1].mac 	"CW dev" 	186.54085948884
scalar NetworkMultiRadioIPv4.mobileHost[10].wlan[1].mac 	"Mean service time" 	0.59206122968422
scalar NetworkMultiRadioIPv4.mobileHost[10].wlan[1].mac 	numSent 	1989
scalar NetworkMultiRadioIPv4.mobileHost[10].wlan[1].mac 	numSentWithoutRetry 	745
scalar NetworkMultiRadioIPv4.mobileHost[10].wlan[1].mac 	numReceived 	952
scalar NetworkMultiRadioIPv4.mobileHost[10].wlan[1].mac 	numSelfReceived 	2191
scalar NetworkMultiRadioIPv4.mobileHost[10].wlan[1].mac 	numSentBroadcast 	16
scalar NetworkMultiRadioIPv4.mobileHost[10].wlan[1].mac 	numReceivedBroadcast 	1
scalar NetworkMultiRadioIPv4.mobileHost[10].wlan[1].mac 	numReceivedOther 	12731
scalar NetworkMultiRadioIPv4.mobileHost[10].wlan[1].mac 	numCollision 	12976
scalar NetworkMultiRadioIPv4.mobileHost[10].wlan[1].mac 	numGivenUp 	183
scalar NetworkMultiRadioIPv4.mobileHost[10].wlan[1].mac 	numAckSend 	952
scalar NetworkMultiRadioIPv4.mobileHost[10].wlan[1].mac 	numRetry 	4088
scalar NetworkMultiRadioIPv4.mobileHost[10].wlan[2].mgmt 	"packets received by queue" 	1693
scalar NetworkMultiRadioIPv4.mobileHost[10].wlan[2].mgmt 	"packets dropped by queue" 	0
scalar NetworkMultiRadioIPv4.mobileHost[10].wlan[2].mac 	"Mean Frame Length" 	222
scalar NetworkMultiRadioIPv4.mobileHost[10].wlan[2].mac 	"Frame Length stddev" 	0
scalar NetworkMultiRadioIPv4.mobileHost[10].wlan[2].mac 	"Sent Throughput" 	0.13586384242141
scalar NetworkMultiRadioIPv4.mobileHost[10].wlan[2].mac 	"CW medio" 	102.81587651599
scalar NetworkMultiRadioIPv4.mobileHost[10].wlan[2].mac 	"CW max" 	1023
scalar NetworkMultiRadioIPv4.mobileHost[10].wlan[2].mac 	"CW dev" 	183.05981101932
scalar NetworkMultiRadioIPv4.mobileHost[10].wlan[2].mac 	"Mean service time" 	0.044356619528696
scalar NetworkMultiRadioIPv4.mobileHost[10].wlan[2].mac 	numSent 	1530
scalar NetworkMultiRadioIPv4.mobileHost[10].wlan[2].mac 	numSentWithoutRetry 	600
scalar NetworkMultiRadioIPv4.mobileHost[10].wlan[2].mac 	numReceived 	995
scalar NetworkMultiRadioIPv4.mobileHost[10].wlan[2].mac 	numSelfReceived 	1693
scalar NetworkMultiRadioIPv4.mobileHost[10].wlan[2].mac 	numSentBroadcast 	18
scalar NetworkMultiRadioIPv4.mobileHost[10].wlan[2].mac 	numReceivedBroadcast 	0
scalar NetworkMultiRadioIPv4.mobileHost[10].wlan[2].mac 	numReceivedOther 	12824
scalar NetworkMultiRadioIPv4.mobileHost[10].wlan[2].mac 	numCollision 	13071
scalar NetworkMultiRadioIPv4.mobileHost[10].wlan[2].mac 	numGivenUp 	143
scalar NetworkMultiRadioIPv4.mobileHost[10].wlan[2].mac 	numAckSend 	995
scalar NetworkMultiRadioIPv4.mobileHost[10].wlan[2].mac 	numRetry 	2990
scalar NetworkMultiRadioIPv4.mobileHost[10].manetRouting.manetmanager.manetroutingprotocol 	"Position X" 	600
scalar NetworkMultiRadioIPv4.mobileHost[10].manetRouting.manetmanager.manetroutingprotocol 	"Position Y" 	150
scalar NetworkMultiRadioIPv4.mobileHost[10].manetRouting.manetmanager.manetroutingprotocol 	lonelyCount 	0
scalar NetworkMultiRadioIPv4.mobileHost[10].manetRouting.manetmanager.manetroutingprotocol 	noNextHopCount 	0
scalar NetworkMultiRadioIPv4.mobileHost[11].udpApp[0] 	"Total send" 	0
scalar NetworkMultiRadioIPv4.mobileHost[11].udpApp[0] 	"Total received" 	131
scalar NetworkMultiRadioIPv4.mobileHost[11].udpApp[0] 	"Total deleted" 	525
scalar NetworkMultiRadioIPv4.mobileHost[11].udpApp[0] 	"Mean delay" 	0.99040637169005
scalar NetworkMultiRadioIPv4.mobileHost[11].udpApp[0] 	"Min delay" 	0.006640217623
scalar NetworkMultiRadioIPv4.mobileHost[11].udpApp[0] 	"Max delay" 	2.994083196009
scalar NetworkMultiRadioIPv4.mobileHost[11].udpApp[0] 	"Deviation delay" 	0.71379844278245
scalar NetworkMultiRadioIPv4.mobileHost[11].udpApp[0] 	"TTL27 NumOfBurstsReceived" 	1
scalar NetworkMultiRadioIPv4.mobileHost[11].udpApp[0] 	"TTL27 NumOfPacketsReceived" 	51
[...]
scalar NetworkMultiRadioIPv4.mobileHost[33].udpApp[2] 	"Total deleted" 	0
scalar NetworkMultiRadioIPv4.mobileHost[33].udpApp[2] 	"Mean delay" 	0
scalar NetworkMultiRadioIPv4.mobileHost[33].udpApp[2] 	"Min delay" 	0
scalar NetworkMultiRadioIPv4.mobileHost[33].udpApp[2] 	"Max delay" 	0
scalar NetworkMultiRadioIPv4.mobileHost[33].udpApp[2] 	"Deviation delay" 	nan
scalar NetworkMultiRadioIPv4.mobileHost[33].pingApp 	"Pings sent" 	0
scalar NetworkMultiRadioIPv4.mobileHost[33].wlan[0].mgmt 	"packets received by queue" 	48
scalar NetworkMultiRadioIPv4.mobileHost[33].wlan[0].mgmt 	"packets dropped by queue" 	0
scalar NetworkMultiRadioIPv4.mobileHost[33].wlan[0].mac 	"Mean Frame Length" 	222
scalar NetworkMultiRadioIPv4.mobileHost[33].wlan[0].mac 	"Frame Length stddev" 	0
scalar NetworkMultiRadioIPv4.mobileHost[33].wlan[0].mac 	"Sent Throughput" 	0.0023087973221938
scalar NetworkMultiRadioIPv4.mobileHost[33].wlan[0].mac 	"CW medio" 	57.846153846154
scalar NetworkMultiRadioIPv4.mobileHost[33].wlan[0].mac 	"CW max" 	604
scalar NetworkMultiRadioIPv4.mobileHost[33].wlan[0].mac 	"CW dev" 	101.69932546776
scalar NetworkMultiRadioIPv4.mobileHost[33].wlan[0].mac 	"Mean service time" 	0.0052327226208462
scalar NetworkMultiRadioIPv4.mobileHost[33].wlan[0].mac 	numSent 	26
scalar NetworkMultiRadioIPv4.mobileHost[33].wlan[0].mac 	numSentWithoutRetry 	7
scalar NetworkMultiRadioIPv4.mobileHost[33].wlan[0].mac 	numReceived 	532
scalar NetworkMultiRadioIPv4.mobileHost[33].wlan[0].mac 	numSelfReceived 	48
scalar NetworkMultiRadioIPv4.mobileHost[33].wlan[0].mac 	numSentBroadcast 	18
scalar NetworkMultiRadioIPv4.mobileHost[33].wlan[0].mac 	numReceivedBroadcast 	2
scalar NetworkMultiRadioIPv4.mobileHost[33].wlan[0].mac 	numReceivedOther 	12198
scalar NetworkMultiRadioIPv4.mobileHost[33].wlan[0].mac 	numCollision 	13388
scalar NetworkMultiRadioIPv4.mobileHost[33].wlan[0].mac 	numGivenUp 	3
scalar NetworkMultiRadioIPv4.mobileHost[33].wlan[0].mac 	numAckSend 	532
scalar NetworkMultiRadioIPv4.mobileHost[33].wlan[0].mac 	numRetry 	55
scalar NetworkMultiRadioIPv4.mobileHost[33].wlan[1].mgmt 	"packets received by queue" 	1785
scalar NetworkMultiRadioIPv4.mobileHost[33].wlan[1].mgmt 	"packets dropped by queue" 	0
scalar NetworkMultiRadioIPv4.mobileHost[33].wlan[1].mac 	"Mean Frame Length" 	222
scalar NetworkMultiRadioIPv4.mobileHost[33].wlan[1].mac 	"Frame Length stddev" 	0
scalar NetworkMultiRadioIPv4.mobileHost[33].wlan[1].mac 	"Sent Throughput" 	0.13675184139148
scalar NetworkMultiRadioIPv4.mobileHost[33].wlan[1].mac 	"CW medio" 	129.06115979862
scalar NetworkMultiRadioIPv4.mobileHost[33].wlan[1].mac 	"CW max" 	1022
scalar NetworkMultiRadioIPv4.mobileHost[33].wlan[1].mac 	"CW dev" 	202.30085318524
scalar NetworkMultiRadioIPv4.mobileHost[33].wlan[1].mac 	"Mean service time" 	0.019194222855253
scalar NetworkMultiRadioIPv4.mobileHost[33].wlan[1].mac 	numSent 	1540
scalar NetworkMultiRadioIPv4.mobileHost[33].wlan[1].mac 	numSentWithoutRetry 	534
scalar NetworkMultiRadioIPv4.mobileHost[33].wlan[1].mac 	numReceived 	268
scalar NetworkMultiRadioIPv4.mobileHost[33].wlan[1].mac 	numSelfReceived 	1785
scalar NetworkMultiRadioIPv4.mobileHost[33].wlan[1].mac 	numSentBroadcast 	18
scalar NetworkMultiRadioIPv4.mobileHost[33].wlan[1].mac 	numReceivedBroadcast 	0
scalar NetworkMultiRadioIPv4.mobileHost[33].wlan[1].mac 	numReceivedOther 	6024
scalar NetworkMultiRadioIPv4.mobileHost[33].wlan[1].mac 	numCollision 	5991
scalar NetworkMultiRadioIPv4.mobileHost[33].wlan[1].mac 	numGivenUp 	225
scalar NetworkMultiRadioIPv4.mobileHost[33].wlan[1].mac 	numAckSend 	268
scalar NetworkMultiRadioIPv4.mobileHost[33].wlan[1].mac 	numRetry 	4019
scalar NetworkMultiRadioIPv4.mobileHost[33].wlan[2].mgmt 	"packets received by queue" 	78
scalar NetworkMultiRadioIPv4.mobileHost[33].wlan[2].mgmt 	"packets dropped by queue" 	0
scalar NetworkMultiRadioIPv4.mobileHost[33].wlan[2].mac 	"Mean Frame Length" 	222
scalar NetworkMultiRadioIPv4.mobileHost[33].wlan[2].mac 	"Frame Length stddev" 	0
scalar NetworkMultiRadioIPv4.mobileHost[33].wlan[2].mac 	"Sent Throughput" 	0.0047951944384026
scalar NetworkMultiRadioIPv4.mobileHost[33].wlan[2].mac 	"CW medio" 	107.71844660194
scalar NetworkMultiRadioIPv4.mobileHost[33].wlan[2].mac 	"CW max" 	945
scalar NetworkMultiRadioIPv4.mobileHost[33].wlan[2].mac 	"CW dev" 	174.87946608468
scalar NetworkMultiRadioIPv4.mobileHost[33].wlan[2].mac 	"Mean service time" 	0.01015760606413
scalar NetworkMultiRadioIPv4.mobileHost[33].wlan[2].mac 	numSent 	54
scalar NetworkMultiRadioIPv4.mobileHost[33].wlan[2].mac 	numSentWithoutRetry 	15
scalar NetworkMultiRadioIPv4.mobileHost[33].wlan[2].mac 	numReceived 	421
scalar NetworkMultiRadioIPv4.mobileHost[33].wlan[2].mac 	numSelfReceived 	78
scalar NetworkMultiRadioIPv4.mobileHost[33].wlan[2].mac 	numSentBroadcast 	18
scalar NetworkMultiRadioIPv4.mobileHost[33].wlan[2].mac 	numReceivedBroadcast 	0
scalar NetworkMultiRadioIPv4.mobileHost[33].wlan[2].mac 	numReceivedOther 	9223
scalar NetworkMultiRadioIPv4.mobileHost[33].wlan[2].mac 	numCollision 	10359
scalar NetworkMultiRadioIPv4.mobileHost[33].wlan[2].mac 	numGivenUp 	5
scalar NetworkMultiRadioIPv4.mobileHost[33].wlan[2].mac 	numAckSend 	421
scalar NetworkMultiRadioIPv4.mobileHost[33].wlan[2].mac 	numRetry 	141
scalar NetworkMultiRadioIPv4.mobileHost[33].manetRouting.manetmanager.manetroutingprotocol 	"Position X" 	450
scalar NetworkMultiRadioIPv4.mobileHost[33].manetRouting.manetmanager.manetroutingprotocol 	"Position Y" 	750
scalar NetworkMultiRadioIPv4.mobileHost[33].manetRouting.manetmanager.manetroutingprotocol 	lonelyCount 	0
scalar NetworkMultiRadioIPv4.mobileHost[33].manetRouting.manetmanager.manetroutingprotocol 	noNextHopCount 	0
scalar NetworkMultiRadioIPv4.mobileHost[34].udpApp[0] 	"Total send" 	927
scalar NetworkMultiRadioIPv4.mobileHost[34].udpApp[0] 	"Total received" 	100
scalar NetworkMultiRadioIPv4.mobileHost[34].udpApp[0] 	"Total deleted" 	288
scalar NetworkMultiRadioIPv4.mobileHost[34].udpApp[0] 	"Mean delay" 	1.6243079776451
scalar NetworkMultiRadioIPv4.mobileHost[34].udpApp[0] 	"Min delay" 	0.017123962151
scalar NetworkMultiRadioIPv4.mobileHost[34].udpApp[0] 	"Max delay" 	3.642861178517
scalar NetworkMultiRadioIPv4.mobileHost[34].udpApp[0] 	"Deviation delay" 	0.92509639743518
scalar NetworkMultiRadioIPv4.mobileHost[34].udpApp[0] 	"TTL27 NumOfBurstsReceived" 	1
scalar NetworkMultiRadioIPv4.mobileHost[34].udpApp[0] 	"TTL27 NumOfPacketsReceived" 	48
scalar NetworkMultiRadioIPv4.mobileHost[34].udpApp[0] 	"TTL28 NumOfBurstsReceived" 	1
scalar NetworkMultiRadioIPv4.mobileHost[34].udpApp[0] 	"TTL28 NumOfPacketsReceived" 	52
scalar NetworkMultiRadioIPv4.mobileHost[34].udpApp[1] 	"Total send" 	929
scalar NetworkMultiRadioIPv4.mobileHost[34].udpApp[1] 	"Total received" 	0
scalar NetworkMultiRadioIPv4.mobileHost[34].udpApp[1] 	"Total deleted" 	0
scalar NetworkMultiRadioIPv4.mobileHost[34].udpApp[1] 	"Mean delay" 	0
scalar NetworkMultiRadioIPv4.mobileHost[34].udpApp[1] 	"Min delay" 	0
scalar NetworkMultiRadioIPv4.mobileHost[34].udpApp[1] 	"Max delay" 	0
scalar NetworkMultiRadioIPv4.mobileHost[34].udpApp[1] 	"Deviation delay" 	nan
scalar NetworkMultiRadioIPv4.mobileHost[34].udpApp[2] 	"Total send" 	927
scalar NetworkMultiRadioIPv4.mobileHost[34].udpApp[2] 	"Total received" 	0
scalar NetworkMultiRadioIPv4.mobileHost[34].udpApp[2] 	"Total deleted" 	0
scalar NetworkMultiRadioIPv4.mobileHost[34].udpApp[2] 	"Mean delay" 	0
scalar NetworkMultiRadioIPv4.mobileHost[34].udpApp[2] 	"Min delay" 	0
scalar NetworkMultiRadioIPv4.mobileHost[34].udpApp[2] 	"Max delay" 	0
scalar NetworkMultiRadioIPv4.mobileHost[34].udpApp[2] 	"Deviation delay" 	nan
scalar NetworkMultiRadioIPv4.mobileHost[34].pingApp 	"Pings sent" 	0
scalar NetworkMultiRadioIPv4.mobileHost[34].wlan[0].mgmt 	"packets received by queue" 	2304
scalar NetworkMultiRadioIPv4.mobileHost[34].wlan[0].mgmt 	"packets dropped by queue" 	56
scalar NetworkMultiRadioIPv4.mobileHost[34].wlan[0].mac 	"Mean Frame Length" 	222
scalar NetworkMultiRadioIPv4.mobileHost[34].wlan[0].mac 	"Frame Length stddev" 	0
scalar NetworkMultiRadioIPv4.mobileHost[34].wlan[0].mac 	"Sent Throughput" 	0.16117181306853
scalar NetworkMultiRadioIPv4.mobileHost[34].wlan[0].mac 	"CW medio" 	124.08982935154
scalar NetworkMultiRadioIPv4.mobileHost[34].wlan[0].mac 	"CW max" 	1023
scalar NetworkMultiRadioIPv4.mobileHost[34].wlan[0].mac 	"CW dev" 	199.8878197447
scalar NetworkMultiRadioIPv4.mobileHost[34].wlan[0].mac 	"Mean service time" 	0.54166593774651
scalar NetworkMultiRadioIPv4.mobileHost[34].wlan[0].mac 	numSent 	1815
scalar NetworkMultiRadioIPv4.mobileHost[34].wlan[0].mac 	numSentWithoutRetry 	584
scalar NetworkMultiRadioIPv4.mobileHost[34].wlan[0].mac 	numReceived 	179
scalar NetworkMultiRadioIPv4.mobileHost[34].wlan[0].mac 	numSelfReceived 	2163
scalar NetworkMultiRadioIPv4.mobileHost[34].wlan[0].mac 	numSentBroadcast 	17
scalar NetworkMultiRadioIPv4.mobileHost[34].wlan[0].mac 	numReceivedBroadcast 	0
scalar NetworkMultiRadioIPv4.mobileHost[34].wlan[0].mac 	numReceivedOther 	6261
scalar NetworkMultiRadioIPv4.mobileHost[34].wlan[0].mac 	numCollision 	7203
scalar NetworkMultiRadioIPv4.mobileHost[34].wlan[0].mac 	numGivenUp 	328
scalar NetworkMultiRadioIPv4.mobileHost[34].wlan[0].mac 	numAckSend 	179
scalar NetworkMultiRadioIPv4.mobileHost[34].wlan[0].mac 	numRetry 	5174
scalar NetworkMultiRadioIPv4.mobileHost[34].wlan[1].mgmt 	"packets received by queue" 	496
scalar NetworkMultiRadioIPv4.mobileHost[34].wlan[1].mgmt 	"packets dropped by queue" 	0
scalar NetworkMultiRadioIPv4.mobileHost[34].wlan[1].mac 	"Mean Frame Length" 	222
scalar NetworkMultiRadioIPv4.mobileHost[34].wlan[1].mac 	"Frame Length stddev" 	0
scalar NetworkMultiRadioIPv4.mobileHost[34].wlan[1].mac 	"Sent Throughput" 	0.035697558596997
scalar NetworkMultiRadioIPv4.mobileHost[34].wlan[1].mac 	"CW medio" 	141.71660181582
scalar NetworkMultiRadioIPv4.mobileHost[34].wlan[1].mac 	"CW max" 	1020
scalar NetworkMultiRadioIPv4.mobileHost[34].wlan[1].mac 	"CW dev" 	214.33079098814
scalar NetworkMultiRadioIPv4.mobileHost[34].wlan[1].mac 	"Mean service time" 	0.011525468575201
scalar NetworkMultiRadioIPv4.mobileHost[34].wlan[1].mac 	numSent 	402
scalar NetworkMultiRadioIPv4.mobileHost[34].wlan[1].mac 	numSentWithoutRetry 	127
scalar NetworkMultiRadioIPv4.mobileHost[34].wlan[1].mac 	numReceived 	181
scalar NetworkMultiRadioIPv4.mobileHost[34].wlan[1].mac 	numSelfReceived 	496
scalar NetworkMultiRadioIPv4.mobileHost[34].wlan[1].mac 	numSentBroadcast 	18
scalar NetworkMultiRadioIPv4.mobileHost[34].wlan[1].mac 	numReceivedBroadcast 	0
scalar NetworkMultiRadioIPv4.mobileHost[34].wlan[1].mac 	numReceivedOther 	7949
scalar NetworkMultiRadioIPv4.mobileHost[34].wlan[1].mac 	numCollision 	7755
scalar NetworkMultiRadioIPv4.mobileHost[34].wlan[1].mac 	numGivenUp 	75
scalar NetworkMultiRadioIPv4.mobileHost[34].wlan[1].mac 	numAckSend 	181
scalar NetworkMultiRadioIPv4.mobileHost[34].wlan[1].mac 	numRetry 	1230
scalar NetworkMultiRadioIPv4.mobileHost[34].wlan[2].mgmt 	"packets received by queue" 	19
scalar NetworkMultiRadioIPv4.mobileHost[34].wlan[2].mgmt 	"packets dropped by queue" 	0
scalar NetworkMultiRadioIPv4.mobileHost[34].wlan[2].mac 	"Mean Frame Length" 	0
scalar NetworkMultiRadioIPv4.mobileHost[34].wlan[2].mac 	"Frame Length stddev" 	nan
scalar NetworkMultiRadioIPv4.mobileHost[34].wlan[2].mac 	"Sent Throughput" 	0
scalar NetworkMultiRadioIPv4.mobileHost[34].wlan[2].mac 	"CW medio" 	15.75
scalar NetworkMultiRadioIPv4.mobileHost[34].wlan[2].mac 	"CW max" 	31
scalar NetworkMultiRadioIPv4.mobileHost[34].wlan[2].mac 	"CW dev" 	7.95647884152
scalar NetworkMultiRadioIPv4.mobileHost[34].wlan[2].mac 	"Mean service time" 	0
scalar NetworkMultiRadioIPv4.mobileHost[34].wlan[2].mac 	numSent 	0
scalar NetworkMultiRadioIPv4.mobileHost[34].wlan[2].mac 	numSentWithoutRetry 	0
scalar NetworkMultiRadioIPv4.mobileHost[34].wlan[2].mac 	numReceived 	28
scalar NetworkMultiRadioIPv4.mobileHost[34].wlan[2].mac 	numSelfReceived 	19
scalar NetworkMultiRadioIPv4.mobileHost[34].wlan[2].mac 	numSentBroadcast 	18
scalar NetworkMultiRadioIPv4.mobileHost[34].wlan[2].mac 	numReceivedBroadcast 	4
scalar NetworkMultiRadioIPv4.mobileHost[34].wlan[2].mac 	numReceivedOther 	9675
scalar NetworkMultiRadioIPv4.mobileHost[34].wlan[2].mac 	numCollision 	12219
scalar NetworkMultiRadioIPv4.mobileHost[34].wlan[2].mac 	numGivenUp 	0
scalar NetworkMultiRadioIPv4.mobileHost[34].wlan[2].mac 	numAckSend 	28
scalar NetworkMultiRadioIPv4.mobileHost[34].wlan[2].mac 	numRetry 	0
scalar NetworkMultiRadioIPv4.mobileHost[34].manetRouting.manetmanager.manetroutingprotocol 	"Position X" 	600
scalar NetworkMultiRadioIPv4.mobileHost[34].manetRouting.manetmanager.manetroutingprotocol 	"Position Y" 	750
scalar NetworkMultiRadioIPv4.mobileHost[34].manetRouting.manetmanager.manetroutingprotocol 	lonelyCount 	0
scalar NetworkMultiRadioIPv4.mobileHost[34].manetRouting.manetmanager.manetroutingprotocol 	noNextHopCount 	0
scalar NetworkMultiRadioIPv4.mobileHost[35].udpApp[0] 	"Total send" 	928
scalar NetworkMultiRadioIPv4.mobileHost[35].udpApp[0] 	"Total received" 	75
scalar NetworkMultiRadioIPv4.mobileHost[35].udpApp[0] 	"Total deleted" 	166
scalar NetworkMultiRadioIPv4.mobileHost[35].udpApp[0] 	"Mean delay" 	1.6089392077999
scalar NetworkMultiRadioIPv4.mobileHost[35].udpApp[0] 	"Min delay" 	0.04926859088
scalar NetworkMultiRadioIPv4.mobileHost[35].udpApp[0] 	"Max delay" 	2.743794646572
scalar NetworkMultiRadioIPv4.mobileHost[35].udpApp[0] 	"Deviation delay" 	0.6714667090744
scalar NetworkMultiRadioIPv4.mobileHost[35].udpApp[0] 	"TTL29 NumOfBurstsReceived" 	1
scalar NetworkMultiRadioIPv4.mobileHost[35].udpApp[0] 	"TTL29 NumOfPacketsReceived" 	75
scalar NetworkMultiRadioIPv4.mobileHost[35].udpApp[1] 	"Total send" 	928
scalar NetworkMultiRadioIPv4.mobileHost[35].udpApp[1] 	"Total received" 	0
scalar NetworkMultiRadioIPv4.mobileHost[35].udpApp[1] 	"Total deleted" 	0
scalar NetworkMultiRadioIPv4.mobileHost[35].udpApp[1] 	"Mean delay" 	0
scalar NetworkMultiRadioIPv4.mobileHost[35].udpApp[1] 	"Min delay" 	0
scalar NetworkMultiRadioIPv4.mobileHost[35].udpApp[1] 	"Max delay" 	0
scalar NetworkMultiRadioIPv4.mobileHost[35].udpApp[1] 	"Deviation delay" 	nan
scalar NetworkMultiRadioIPv4.mobileHost[35].udpApp[2] 	"Total send" 	928
scalar NetworkMultiRadioIPv4.mobileHost[35].udpApp[2] 	"Total received" 	0
scalar NetworkMultiRadioIPv4.mobileHost[35].udpApp[2] 	"Total deleted" 	0
scalar NetworkMultiRadioIPv4.mobileHost[35].udpApp[2] 	"Mean delay" 	0
scalar NetworkMultiRadioIPv4.mobileHost[35].udpApp[2] 	"Min delay" 	0
scalar NetworkMultiRadioIPv4.mobileHost[35].udpApp[2] 	"Max delay" 	0
scalar NetworkMultiRadioIPv4.mobileHost[35].udpApp[2] 	"Deviation delay" 	nan
scalar NetworkMultiRadioIPv4.mobileHost[35].pingApp 	"Pings sent" 	0
scalar NetworkMultiRadioIPv4.mobileHost[35].wlan[0].mgmt 	"packets received by queue" 	77
scalar NetworkMultiRadioIPv4.mobileHost[35].wlan[0].mgmt 	"packets dropped by queue" 	0
scalar NetworkMultiRadioIPv4.mobileHost[35].wlan[0].mac 	"Mean Frame Length" 	222
scalar NetworkMultiRadioIPv4.mobileHost[35].wlan[0].mac 	"Frame Length stddev" 	0
scalar NetworkMultiRadioIPv4.mobileHost[35].wlan[0].mac 	"Sent Throughput" 	0.0043511949533653
scalar NetworkMultiRadioIPv4.mobileHost[35].wlan[0].mac 	"CW medio" 	128.96035242291
scalar NetworkMultiRadioIPv4.mobileHost[35].wlan[0].mac 	"CW max" 	997
scalar NetworkMultiRadioIPv4.mobileHost[35].wlan[0].mac 	"CW dev" 	216.67990178381
scalar NetworkMultiRadioIPv4.mobileHost[35].wlan[0].mac 	"Mean service time" 	0.023897204045735
scalar NetworkMultiRadioIPv4.mobileHost[35].wlan[0].mac 	numSent 	49
scalar NetworkMultiRadioIPv4.mobileHost[35].wlan[0].mac 	numSentWithoutRetry 	16
scalar NetworkMultiRadioIPv4.mobileHost[35].wlan[0].mac 	numReceived 	53
scalar NetworkMultiRadioIPv4.mobileHost[35].wlan[0].mac 	numSelfReceived 	77
scalar NetworkMultiRadioIPv4.mobileHost[35].wlan[0].mac 	numSentBroadcast 	18
scalar NetworkMultiRadioIPv4.mobileHost[35].wlan[0].mac 	numReceivedBroadcast 	1
scalar NetworkMultiRadioIPv4.mobileHost[35].wlan[0].mac 	numReceivedOther 	6238
scalar NetworkMultiRadioIPv4.mobileHost[35].wlan[0].mac 	numCollision 	9348
scalar NetworkMultiRadioIPv4.mobileHost[35].wlan[0].mac 	numGivenUp 	9
scalar NetworkMultiRadioIPv4.mobileHost[35].wlan[0].mac 	numAckSend 	53
scalar NetworkMultiRadioIPv4.mobileHost[35].wlan[0].mac 	numRetry 	150
scalar NetworkMultiRadioIPv4.mobileHost[35].wlan[1].mgmt 	"packets received by queue" 	19
scalar NetworkMultiRadioIPv4.mobileHost[35].wlan[1].mgmt 	"packets dropped by queue" 	0
scalar NetworkMultiRadioIPv4.mobileHost[35].wlan[1].mac 	"Mean Frame Length" 	0
scalar NetworkMultiRadioIPv4.mobileHost[35].wlan[1].mac 	"Frame Length stddev" 	nan
scalar NetworkMultiRadioIPv4.mobileHost[35].wlan[1].mac 	"Sent Throughput" 	0
scalar NetworkMultiRadioIPv4.mobileHost[35].wlan[1].mac 	"CW medio" 	16.521739130435
scalar NetworkMultiRadioIPv4.mobileHost[35].wlan[1].mac 	"CW max" 	31
scalar NetworkMultiRadioIPv4.mobileHost[35].wlan[1].mac 	"CW dev" 	11.653597046006
scalar NetworkMultiRadioIPv4.mobileHost[35].wlan[1].mac 	"Mean service time" 	0
scalar NetworkMultiRadioIPv4.mobileHost[35].wlan[1].mac 	numSent 	0
scalar NetworkMultiRadioIPv4.mobileHost[35].wlan[1].mac 	numSentWithoutRetry 	0
scalar NetworkMultiRadioIPv4.mobileHost[35].wlan[1].mac 	numReceived 	11
scalar NetworkMultiRadioIPv4.mobileHost[35].wlan[1].mac 	numSelfReceived 	19
scalar NetworkMultiRadioIPv4.mobileHost[35].wlan[1].mac 	numSentBroadcast 	18
scalar NetworkMultiRadioIPv4.mobileHost[35].wlan[1].mac 	numReceivedBroadcast 	2
scalar NetworkMultiRadioIPv4.mobileHost[35].wlan[1].mac 	numReceivedOther 	3385
scalar NetworkMultiRadioIPv4.mobileHost[35].wlan[1].mac 	numCollision 	4676
scalar NetworkMultiRadioIPv4.mobileHost[35].wlan[1].mac 	numGivenUp 	0
scalar NetworkMultiRadioIPv4.mobileHost[35].wlan[1].mac 	numAckSend 	11
scalar NetworkMultiRadioIPv4.mobileHost[35].wlan[1].mac 	numRetry 	0
scalar NetworkMultiRadioIPv4.mobileHost[35].wlan[2].mgmt 	"packets received by queue" 	2703
scalar NetworkMultiRadioIPv4.mobileHost[35].wlan[2].mgmt 	"packets dropped by queue" 	358
scalar NetworkMultiRadioIPv4.mobileHost[35].wlan[2].mac 	"Mean Frame Length" 	222
scalar NetworkMultiRadioIPv4.mobileHost[35].wlan[2].mac 	"Frame Length stddev" 	0
scalar NetworkMultiRadioIPv4.mobileHost[35].wlan[2].mac 	"Sent Throughput" 	0.16037261399546
scalar NetworkMultiRadioIPv4.mobileHost[35].wlan[2].mac 	"CW medio" 	136.65839829908
scalar NetworkMultiRadioIPv4.mobileHost[35].wlan[2].mac 	"CW max" 	1023
scalar NetworkMultiRadioIPv4.mobileHost[35].wlan[2].mac 	"CW dev" 	212.85580090123
scalar NetworkMultiRadioIPv4.mobileHost[35].wlan[2].mac 	"Mean service time" 	0.65924545928396
scalar NetworkMultiRadioIPv4.mobileHost[35].wlan[2].mac 	numSent 	1806
scalar NetworkMultiRadioIPv4.mobileHost[35].wlan[2].mac 	numSentWithoutRetry 	513
scalar NetworkMultiRadioIPv4.mobileHost[35].wlan[2].mac 	numReceived 	177
scalar NetworkMultiRadioIPv4.mobileHost[35].wlan[2].mac 	numSelfReceived 	2256
scalar NetworkMultiRadioIPv4.mobileHost[35].wlan[2].mac 	numSentBroadcast 	14
scalar NetworkMultiRadioIPv4.mobileHost[35].wlan[2].mac 	numReceivedBroadcast 	2
scalar NetworkMultiRadioIPv4.mobileHost[35].wlan[2].mac 	numReceivedOther 	3343
scalar NetworkMultiRadioIPv4.mobileHost[35].wlan[2].mac 	numCollision 	4461
scalar NetworkMultiRadioIPv4.mobileHost[35].wlan[2].mac 	numGivenUp 	433
scalar NetworkMultiRadioIPv4.mobileHost[35].wlan[2].mac 	numAckSend 	177
scalar NetworkMultiRadioIPv4.mobileHost[35].wlan[2].mac 	numRetry 	6215
scalar NetworkMultiRadioIPv4.mobileHost[35].manetRouting.manetmanager.manetroutingprotocol 	"Position X" 	750
scalar NetworkMultiRadioIPv4.mobileHost[35].manetRouting.manetmanager.manetroutingprotocol 	"Position Y" 	750
scalar NetworkMultiRadioIPv4.mobileHost[35].manetRouting.manetmanager.manetroutingprotocol 	lonelyCount 	0
scalar NetworkMultiRadioIPv4.mobileHost[35].manetRouting.manetmanager.manetroutingprotocol 	noNextHopCount 	0
