version 2
run random36-5-20100509-12:17:12-4688
attr configname random36
attr datetime 20100509-12:17:12
attr experiment random36
attr inifile omnetpp.ini
attr iterationvars "$numudpapp=3, $sp=50, $msgfreq=0.02"
attr iterationvars2 "$numudpapp=3, $sp=50, $msgfreq=0.02, $repetition=2"
attr measurement "$numudpapp=3, $sp=50, $msgfreq=0.02"
attr msgfreq 0.02
attr network NetworkMultiRadioIPv4
attr numudpapp 3
attr processid 4688
attr repetition 2
attr replication #2
attr resultdir results
attr runnumber 5
attr seedset 5
attr sp 50

scalar . 	msgfreq 	0.02
scalar . 	numudpapp 	3
scalar . 	sp 	50
scalar NetworkMultiRadioIPv4.mobileHost[0].udpApp[0] 	"Total send" 	927
scalar NetworkMultiRadioIPv4.mobileHost[0].udpApp[0] 	"Total received" 	697
scalar NetworkMultiRadioIPv4.mobileHost[0].udpApp[0] 	"Total deleted" 	435
scalar NetworkMultiRadioIPv4.mobileHost[0].udpApp[0] 	"Mean delay" 	0.24309109258677
scalar NetworkMultiRadioIPv4.mobileHost[0].udpApp[0] 	"Min delay" 	0.000921207106
scalar NetworkMultiRadioIPv4.mobileHost[0].udpApp[0] 	"Max delay" 	1.69291434854
scalar NetworkMultiRadioIPv4.mobileHost[0].udpApp[0] 	"Deviation delay" 	0.42603533620477
scalar NetworkMultiRadioIPv4.mobileHost[0].udpApp[0] 	"TTL28 NumOfBurstsReceived" 	2
scalar NetworkMultiRadioIPv4.mobileHost[0].udpApp[0] 	"TTL28 NumOfPacketsReceived" 	697
scalar NetworkMultiRadioIPv4.mobileHost[0].udpApp[1] 	"Total send" 	927
scalar NetworkMultiRadioIPv4.mobileHost[0].udpApp[1] 	"Total received" 	0
scalar NetworkMultiRadioIPv4.mobileHost[0].udpApp[1] 	"Total deleted" 	0
scalar NetworkMultiRadioIPv4.mobileHost[0].udpApp[1] 	"Mean delay" 	0
scalar NetworkMultiRadioIPv4.mobileHost[0].udpApp[1] 	"Min delay" 	0
scalar NetworkMultiRadioIPv4.mobileHost[0].udpApp[1] 	"Max delay" 	0
scalar NetworkMultiRadioIPv4.mobileHost[0].udpApp[1] 	"Deviation delay" 	nan
scalar NetworkMultiRadioIPv4.mobileHost[0].udpApp[2] 	"Total send" 	927
scalar NetworkMultiRadioIPv4.mobileHost[0].udpApp[2] 	"Total received" 	0
scalar NetworkMultiRadioIPv4.mobileHost[0].udpApp[2] 	"Total deleted" 	0
scalar NetworkMultiRadioIPv4.mobileHost[0].udpApp[2] 	"Mean delay" 	0
scalar NetworkMultiRadioIPv4.mobileHost[0].udpApp[2] 	"Min delay" 	0
scalar NetworkMultiRadioIPv4.mobileHost[0].udpApp[2] 	"Max delay" 	0
scalar NetworkMultiRadioIPv4.mobileHost[0].udpApp[2] 	"Deviation delay" 	nan
scalar NetworkMultiRadioIPv4.mobileHost[0].pingApp 	"Pings sent" 	0
scalar NetworkMultiRadioIPv4.mobileHost[0].wlan[0].mgmt 	"packets received by queue" 	956
scalar NetworkMultiRadioIPv4.mobileHost[0].wlan[0].mgmt 	"packets dropped by queue" 	0
scalar NetworkMultiRadioIPv4.mobileHost[0].wlan[0].mac 	"Mean Frame Length" 	222
scalar NetworkMultiRadioIPv4.mobileHost[0].wlan[0].mac 	"Frame Length stddev" 	0
scalar NetworkMultiRadioIPv4.mobileHost[0].wlan[0].mac 	"Sent Throughput" 	0.072016796492753
scalar NetworkMultiRadioIPv4.mobileHost[0].wlan[0].mac 	"CW medio" 	141.01552442257
scalar NetworkMultiRadioIPv4.mobileHost[0].wlan[0].mac 	"CW max" 	1023
scalar NetworkMultiRadioIPv4.mobileHost[0].wlan[0].mac 	"CW dev" 	205.8868311935
scalar NetworkMultiRadioIPv4.mobileHost[0].wlan[0].mac 	"Mean service time" 	0.006590523330275
scalar NetworkMultiRadioIPv4.mobileHost[0].wlan[0].mac 	numSent 	811
scalar NetworkMultiRadioIPv4.mobileHost[0].wlan[0].mac 	numSentWithoutRetry 	269
scalar NetworkMultiRadioIPv4.mobileHost[0].wlan[0].mac 	numReceived 	372
scalar NetworkMultiRadioIPv4.mobileHost[0].wlan[0].mac 	numSelfReceived 	956
scalar NetworkMultiRadioIPv4.mobileHost[0].wlan[0].mac 	numSentBroadcast 	-1
scalar NetworkMultiRadioIPv4.mobileHost[0].wlan[0].mac 	numReceivedBroadcast 	0
scalar NetworkMultiRadioIPv4.mobileHost[0].wlan[0].mac 	numReceivedOther 	2606
scalar NetworkMultiRadioIPv4.mobileHost[0].wlan[0].mac 	numCollision 	3539
scalar NetworkMultiRadioIPv4.mobileHost[0].wlan[0].mac 	numGivenUp 	145
scalar NetworkMultiRadioIPv4.mobileHost[0].wlan[0].mac 	numAckSend 	372
scalar NetworkMultiRadioIPv4.mobileHost[0].wlan[0].mac 	numRetry 	2245
scalar NetworkMultiRadioIPv4.mobileHost[0].wlan[1].mgmt 	"packets received by queue" 	904
scalar NetworkMultiRadioIPv4.mobileHost[0].wlan[1].mgmt 	"packets dropped by queue" 	0
scalar NetworkMultiRadioIPv4.mobileHost[0].wlan[1].mac 	"Mean Frame Length" 	222
scalar NetworkMultiRadioIPv4.mobileHost[0].wlan[1].mac 	"Frame Length stddev" 	0
scalar NetworkMultiRadioIPv4.mobileHost[0].wlan[1].mac 	"Sent Throughput" 	0.071483996518701
scalar NetworkMultiRadioIPv4.mobileHost[0].wlan[1].mac 	"CW medio" 	140.22054507338
scalar NetworkMultiRadioIPv4.mobileHost[0].wlan[1].mac 	"CW max" 	1022
scalar NetworkMultiRadioIPv4.mobileHost[0].wlan[1].mac 	"CW dev" 	208.81780536178
scalar NetworkMultiRadioIPv4.mobileHost[0].wlan[1].mac 	"Mean service time" 	0.0062267803554062
scalar NetworkMultiRadioIPv4.mobileHost[0].wlan[1].mac 	numSent 	805
scalar NetworkMultiRadioIPv4.mobileHost[0].wlan[1].mac 	numSentWithoutRetry 	274
scalar NetworkMultiRadioIPv4.mobileHost[0].wlan[1].mac 	numReceived 	387
scalar NetworkMultiRadioIPv4.mobileHost[0].wlan[1].mac 	numSelfReceived 	904
scalar NetworkMultiRadioIPv4.mobileHost[0].wlan[1].mac 	numSentBroadcast 	-1
scalar NetworkMultiRadioIPv4.mobileHost[0].wlan[1].mac 	numReceivedBroadcast 	0
scalar NetworkMultiRadioIPv4.mobileHost[0].wlan[1].mac 	numReceivedOther 	2465
scalar NetworkMultiRadioIPv4.mobileHost[0].wlan[1].mac 	numCollision 	3346
scalar NetworkMultiRadioIPv4.mobileHost[0].wlan[1].mac 	numGivenUp 	99
scalar NetworkMultiRadioIPv4.mobileHost[0].wlan[1].mac 	numAckSend 	387
scalar NetworkMultiRadioIPv4.mobileHost[0].wlan[1].mac 	numRetry 	2045
scalar NetworkMultiRadioIPv4.mobileHost[0].wlan[2].mgmt 	"packets received by queue" 	918
scalar NetworkMultiRadioIPv4.mobileHost[0].wlan[2].mgmt 	"packets dropped by queue" 	0
scalar NetworkMultiRadioIPv4.mobileHost[0].wlan[2].mac 	"Mean Frame Length" 	222
scalar NetworkMultiRadioIPv4.mobileHost[0].wlan[2].mac 	"Frame Length stddev" 	0
scalar NetworkMultiRadioIPv4.mobileHost[0].wlan[2].mac 	"Sent Throughput" 	0.071128796535999
scalar NetworkMultiRadioIPv4.mobileHost[0].wlan[2].mac 	"CW medio" 	144.27456769296
scalar NetworkMultiRadioIPv4.mobileHost[0].wlan[2].mac 	"CW max" 	1019
scalar NetworkMultiRadioIPv4.mobileHost[0].wlan[2].mac 	"CW dev" 	212.36506885801
scalar NetworkMultiRadioIPv4.mobileHost[0].wlan[2].mac 	"Mean service time" 	0.0055938783781386
scalar NetworkMultiRadioIPv4.mobileHost[0].wlan[2].mac 	numSent 	801
scalar NetworkMultiRadioIPv4.mobileHost[0].wlan[2].mac 	numSentWithoutRetry 	267
scalar NetworkMultiRadioIPv4.mobileHost[0].wlan[2].mac 	numReceived 	373
scalar NetworkMultiRadioIPv4.mobileHost[0].wlan[2].mac 	numSelfReceived 	918
scalar NetworkMultiRadioIPv4.mobileHost[0].wlan[2].mac 	numSentBroadcast 	-1
scalar NetworkMultiRadioIPv4.mobileHost[0].wlan[2].mac 	numReceivedBroadcast 	0
scalar NetworkMultiRadioIPv4.mobileHost[0].wlan[2].mac 	numReceivedOther 	2491
scalar NetworkMultiRadioIPv4.mobileHost[0].wlan[2].mac 	numCollision 	3316
scalar NetworkMultiRadioIPv4.mobileHost[0].wlan[2].mac 	numGivenUp 	117
scalar NetworkMultiRadioIPv4.mobileHost[0].wlan[2].mac 	numAckSend 	373
scalar NetworkMultiRadioIPv4.mobileHost[0].wlan[2].mac 	numRetry 	2039
scalar NetworkMultiRadioIPv4.mobileHost[0].manetRouting.manetmanager.manetroutingprotocol 	"Position X" 	0
scalar NetworkMultiRadioIPv4.mobileHost[0].manetRouting.manetmanager.manetroutingprotocol 	"Position Y" 	0
scalar NetworkMultiRadioIPv4.mobileHost[0].manetRouting.manetmanager.manetroutingprotocol 	lonelyCount 	0
scalar NetworkMultiRadioIPv4.mobileHost[0].manetRouting.manetmanager.manetroutingprotocol 	noNextHopCount 	0
scalar NetworkMultiRadioIPv4.mobileHost[1].udpApp[0] 	"Total send" 	0
scalar NetworkMultiRadioIPv4.mobileHost[1].udpApp[0] 	"Total received" 	0
scalar NetworkMultiRadioIPv4.mobileHost[1].udpApp[0] 	"Total deleted" 	0
scalar NetworkMultiRadioIPv4.mobileHost[1].udpApp[0] 	"Mean delay" 	0
scalar NetworkMultiRadioIPv4.mobileHost[1].udpApp[0] 	"Min delay" 	0
scalar NetworkMultiRadioIPv4.mobileHost[1].udpApp[0] 	"Max delay" 	0
scalar NetworkMultiRadioIPv4.mobileHost[1].udpApp[0] 	"Deviation delay" 	nan
scalar NetworkMultiRadioIPv4.mobileHost[1].udpApp[1] 	"Total send" 	928
scalar NetworkMultiRadioIPv4.mobileHost[1].udpApp[1] 	"Total received" 	0
scalar NetworkMultiRadioIPv4.mobileHost[1].udpApp[1] 	"Total deleted" 	0
scalar NetworkMultiRadioIPv4.mobileHost[1].udpApp[1] 	"Mean delay" 	0
scalar NetworkMultiRadioIPv4.mobileHost[1].udpApp[1] 	"Min delay" 	0
scalar NetworkMultiRadioIPv4.mobileHost[1].udpApp[1] 	"Max delay" 	0
scalar NetworkMultiRadioIPv4.mobileHost[1].udpApp[1] 	"Deviation delay" 	nan
scalar NetworkMultiRadioIPv4.mobileHost[1].udpApp[2] 	"Total send" 	927
scalar NetworkMultiRadioIPv4.mobileHost[1].udpApp[2] 	"Total received" 	0
scalar NetworkMultiRadioIPv4.mobileHost[1].udpApp[2] 	"Total deleted" 	0
scalar NetworkMultiRadioIPv4.mobileHost[1].udpApp[2] 	"Mean delay" 	0
scalar NetworkMultiRadioIPv4.mobileHost[1].udpApp[2] 	"Min delay" 	0
scalar NetworkMultiRadioIPv4.mobileHost[1].udpApp[2] 	"Max delay" 	0
scalar NetworkMultiRadioIPv4.mobileHost[1].udpApp[2] 	"Deviation delay" 	nan
scalar NetworkMultiRadioIPv4.mobileHost[1].pingApp 	"Pings sent" 	0
scalar NetworkMultiRadioIPv4.mobileHost[1].wlan[0].mgmt 	"packets received by queue" 	888
scalar NetworkMultiRadioIPv4.mobileHost[1].wlan[0].mgmt 	"packets dropped by queue" 	0
scalar NetworkMultiRadioIPv4.mobileHost[1].wlan[0].mac 	"Mean Frame Length" 	222
scalar NetworkMultiRadioIPv4.mobileHost[1].wlan[0].mac 	"Frame Length stddev" 	0
scalar NetworkMultiRadioIPv4.mobileHost[1].wlan[0].mac 	"Sent Throughput" 	0.072016796492753
scalar NetworkMultiRadioIPv4.mobileHost[1].wlan[0].mac 	"CW medio" 	112.15512465374
scalar NetworkMultiRadioIPv4.mobileHost[1].wlan[0].mac 	"CW max" 	1021
scalar NetworkMultiRadioIPv4.mobileHost[1].wlan[0].mac 	"CW dev" 	183.10635216279
scalar NetworkMultiRadioIPv4.mobileHost[1].wlan[0].mac 	"Mean service time" 	0.0072254197321665
scalar NetworkMultiRadioIPv4.mobileHost[1].wlan[0].mac 	numSent 	811
scalar NetworkMultiRadioIPv4.mobileHost[1].wlan[0].mac 	numSentWithoutRetry 	298
scalar NetworkMultiRadioIPv4.mobileHost[1].wlan[0].mac 	numReceived 	254
scalar NetworkMultiRadioIPv4.mobileHost[1].wlan[0].mac 	numSelfReceived 	888
scalar NetworkMultiRadioIPv4.mobileHost[1].wlan[0].mac 	numSentBroadcast 	-1
scalar NetworkMultiRadioIPv4.mobileHost[1].wlan[0].mac 	numReceivedBroadcast 	0
scalar NetworkMultiRadioIPv4.mobileHost[1].wlan[0].mac 	numReceivedOther 	6181
scalar NetworkMultiRadioIPv4.mobileHost[1].wlan[0].mac 	numCollision 	6865
scalar NetworkMultiRadioIPv4.mobileHost[1].wlan[0].mac 	numGivenUp 	77
scalar NetworkMultiRadioIPv4.mobileHost[1].wlan[0].mac 	numAckSend 	254
scalar NetworkMultiRadioIPv4.mobileHost[1].wlan[0].mac 	numRetry 	1644
scalar NetworkMultiRadioIPv4.mobileHost[1].wlan[1].mgmt 	"packets received by queue" 	853
scalar NetworkMultiRadioIPv4.mobileHost[1].wlan[1].mgmt 	"packets dropped by queue" 	0
scalar NetworkMultiRadioIPv4.mobileHost[1].wlan[1].mac 	"Mean Frame Length" 	222
scalar NetworkMultiRadioIPv4.mobileHost[1].wlan[1].mac 	"Frame Length stddev" 	0
scalar NetworkMultiRadioIPv4.mobileHost[1].wlan[1].mac 	"Sent Throughput" 	0.070418396570596
scalar NetworkMultiRadioIPv4.mobileHost[1].wlan[1].mac 	"CW medio" 	113.29713721619
scalar NetworkMultiRadioIPv4.mobileHost[1].wlan[1].mac 	"CW max" 	1015
scalar NetworkMultiRadioIPv4.mobileHost[1].wlan[1].mac 	"CW dev" 	175.10946294119
scalar NetworkMultiRadioIPv4.mobileHost[1].wlan[1].mac 	"Mean service time" 	0.0064694121639483
scalar NetworkMultiRadioIPv4.mobileHost[1].wlan[1].mac 	numSent 	793
scalar NetworkMultiRadioIPv4.mobileHost[1].wlan[1].mac 	numSentWithoutRetry 	298
scalar NetworkMultiRadioIPv4.mobileHost[1].wlan[1].mac 	numReceived 	222
scalar NetworkMultiRadioIPv4.mobileHost[1].wlan[1].mac 	numSelfReceived 	853
scalar NetworkMultiRadioIPv4.mobileHost[1].wlan[1].mac 	numSentBroadcast 	-1
scalar NetworkMultiRadioIPv4.mobileHost[1].wlan[1].mac 	numReceivedBroadcast 	0
scalar NetworkMultiRadioIPv4.mobileHost[1].wlan[1].mac 	numReceivedOther 	6088
scalar NetworkMultiRadioIPv4.mobileHost[1].wlan[1].mac 	numCollision 	6406
scalar NetworkMultiRadioIPv4.mobileHost[1].wlan[1].mac 	numGivenUp 	60
scalar NetworkMultiRadioIPv4.mobileHost[1].wlan[1].mac 	numAckSend 	222
scalar NetworkMultiRadioIPv4.mobileHost[1].wlan[1].mac 	numRetry 	1571
scalar NetworkMultiRadioIPv4.mobileHost[1].wlan[2].mgmt 	"packets received by queue" 	824
scalar NetworkMultiRadioIPv4.mobileHost[1].wlan[2].mgmt 	"packets dropped by queue" 	0
scalar NetworkMultiRadioIPv4.mobileHost[1].wlan[2].mac 	"Mean Frame Length" 	222
scalar NetworkMultiRadioIPv4.mobileHost[1].wlan[2].mac 	"Frame Length stddev" 	0
scalar NetworkMultiRadioIPv4.mobileHost[1].wlan[2].mac 	"Sent Throughput" 	0.065623196804124
scalar NetworkMultiRadioIPv4.mobileHost[1].wlan[2].mac 	"CW medio" 	122.07861936721
scalar NetworkMultiRadioIPv4.mobileHost[1].wlan[2].mac 	"CW max" 	1008
scalar NetworkMultiRadioIPv4.mobileHost[1].wlan[2].mac 	"CW dev" 	195.91695385759
scalar NetworkMultiRadioIPv4.mobileHost[1].wlan[2].mac 	"Mean service time" 	0.0066929815001218
scalar NetworkMultiRadioIPv4.mobileHost[1].wlan[2].mac 	numSent 	739
scalar NetworkMultiRadioIPv4.mobileHost[1].wlan[2].mac 	numSentWithoutRetry 	258
scalar NetworkMultiRadioIPv4.mobileHost[1].wlan[2].mac 	numReceived 	252
scalar NetworkMultiRadioIPv4.mobileHost[1].wlan[2].mac 	numSelfReceived 	824
scalar NetworkMultiRadioIPv4.mobileHost[1].wlan[2].mac 	numSentBroadcast 	-1
scalar NetworkMultiRadioIPv4.mobileHost[1].wlan[2].mac 	numReceivedBroadcast 	0
scalar NetworkMultiRadioIPv4.mobileHost[1].wlan[2].mac 	numReceivedOther 	6160
scalar NetworkMultiRadioIPv4.mobileHost[1].wlan[2].mac 	numCollision 	6467
scalar NetworkMultiRadioIPv4.mobileHost[1].wlan[2].mac 	numGivenUp 	85
scalar NetworkMultiRadioIPv4.mobileHost[1].wlan[2].mac 	numAckSend 	252
scalar NetworkMultiRadioIPv4.mobileHost[1].wlan[2].mac 	numRetry 	1620
scalar NetworkMultiRadioIPv4.mobileHost[1].manetRouting.manetmanager.manetroutingprotocol 	"Position X" 	150
scalar NetworkMultiRadioIPv4.mobileHost[1].manetRouting.manetmanager.manetroutingprotocol 	"Position Y" 	0
scalar NetworkMultiRadioIPv4.mobileHost[1].manetRouting.manetmanager.manetroutingprotocol 	lonelyCount 	0
scalar NetworkMultiRadioIPv4.mobileHost[1].manetRouting.manetmanager.manetroutingprotocol 	noNextHopCount 	0
scalar NetworkMultiRadioIPv4.mobileHost[2].udpApp[0] 	"Total send" 	0
scalar NetworkMultiRadioIPv4.mobileHost[2].udpApp[0] 	"Total received" 	304
scalar NetworkMultiRadioIPv4.mobileHost[2].udpApp[0] 	"Total deleted" 	458
scalar NetworkMultiRadioIPv4.mobileHost[2].udpApp[0] 	"Mean delay" 	0.10545993212507
scalar NetworkMultiRadioIPv4.mobileHost[2].udpApp[0] 	"Min delay" 	0.002022800927
scalar NetworkMultiRadioIPv4.mobileHost[2].udpApp[0] 	"Max delay" 	0.337749236449
scalar NetworkMultiRadioIPv4.mobileHost[2].udpApp[0] 	"Deviation delay" 	0.064629605741968
scalar NetworkMultiRadioIPv4.mobileHost[2].udpApp[0] 	"TTL28 NumOfBurstsReceived" 	1
scalar NetworkMultiRadioIPv4.mobileHost[2].udpApp[0] 	"TTL28 NumOfPacketsReceived" 	304
scalar NetworkMultiRadioIPv4.mobileHost[2].udpApp[1] 	"Total send" 	0
scalar NetworkMultiRadioIPv4.mobileHost[2].udpApp[1] 	"Total received" 	0
scalar NetworkMultiRadioIPv4.mobileHost[2].udpApp[1] 	"Total deleted" 	0
scalar NetworkMultiRadioIPv4.mobileHost[2].udpApp[1] 	"Mean delay" 	0
scalar NetworkMultiRadioIPv4.mobileHost[2].udpApp[1] 	"Min delay" 	0
scalar NetworkMultiRadioIPv4.mobileHost[2].udpApp[1] 	"Max delay" 	0
scalar NetworkMultiRadioIPv4.mobileHost[2].udpApp[1] 	"Deviation delay" 	nan
scalar NetworkMultiRadioIPv4.mobileHost[2].udpApp[2] 	"Total send" 	0
scalar NetworkMultiRadioIPv4.mobileHost[2].udpApp[2] 	"Total received" 	0
scalar NetworkMultiRadioIPv4.mobileHost[2].udpApp[2] 	"Total deleted" 	0
scalar NetworkMultiRadioIPv4.mobileHost[2].udpApp[2] 	"Mean delay" 	0
scalar NetworkMultiRadioIPv4.mobileHost[2].udpApp[2] 	"Min delay" 	0
scalar NetworkMultiRadioIPv4.mobileHost[2].udpApp[2] 	"Max delay" 	0
scalar NetworkMultiRadioIPv4.mobileHost[2].udpApp[2] 	"Deviation delay" 	nan
scalar NetworkMultiRadioIPv4.mobileHost[2].pingApp 	"Pings sent" 	0
scalar NetworkMultiRadioIPv4.mobileHost[2].wlan[0].mgmt 	"packets received by queue" 	258
scalar NetworkMultiRadioIPv4.mobileHost[2].wlan[0].mgmt 	"packets dropped by queue" 	0
scalar NetworkMultiRadioIPv4.mobileHost[2].wlan[0].mac 	"Mean Frame Length" 	222
scalar NetworkMultiRadioIPv4.mobileHost[2].wlan[0].mac 	"Frame Length stddev" 	0
scalar NetworkMultiRadioIPv4.mobileHost[2].wlan[0].mac 	"Sent Throughput" 	0.022555198901553
scalar NetworkMultiRadioIPv4.mobileHost[2].wlan[0].mac 	"CW medio" 	83.185823754789
scalar NetworkMultiRadioIPv4.mobileHost[2].wlan[0].mac 	"CW max" 	1013
scalar NetworkMultiRadioIPv4.mobileHost[2].wlan[0].mac 	"CW dev" 	159.05749859742
scalar NetworkMultiRadioIPv4.mobileHost[2].wlan[0].mac 	"Mean service time" 	0.0045492447028425
scalar NetworkMultiRadioIPv4.mobileHost[2].wlan[0].mac 	numSent 	254
scalar NetworkMultiRadioIPv4.mobileHost[2].wlan[0].mac 	numSentWithoutRetry 	112
scalar NetworkMultiRadioIPv4.mobileHost[2].wlan[0].mac 	numReceived 	509
scalar NetworkMultiRadioIPv4.mobileHost[2].wlan[0].mac 	numSelfReceived 	258
scalar NetworkMultiRadioIPv4.mobileHost[2].wlan[0].mac 	numSentBroadcast 	-1
scalar NetworkMultiRadioIPv4.mobileHost[2].wlan[0].mac 	numReceivedBroadcast 	0
scalar NetworkMultiRadioIPv4.mobileHost[2].wlan[0].mac 	numReceivedOther 	9588
scalar NetworkMultiRadioIPv4.mobileHost[2].wlan[0].mac 	numCollision 	9372
scalar NetworkMultiRadioIPv4.mobileHost[2].wlan[0].mac 	numGivenUp 	4
scalar NetworkMultiRadioIPv4.mobileHost[2].wlan[0].mac 	numAckSend 	509
scalar NetworkMultiRadioIPv4.mobileHost[2].wlan[0].mac 	numRetry 	337
scalar NetworkMultiRadioIPv4.mobileHost[2].wlan[1].mgmt 	"packets received by queue" 	231
scalar NetworkMultiRadioIPv4.mobileHost[2].wlan[1].mgmt 	"packets dropped by queue" 	0
scalar NetworkMultiRadioIPv4.mobileHost[2].wlan[1].mac 	"Mean Frame Length" 	222
scalar NetworkMultiRadioIPv4.mobileHost[2].wlan[1].mac 	"Frame Length stddev" 	0
scalar NetworkMultiRadioIPv4.mobileHost[2].wlan[1].mac 	"Sent Throughput" 	0.01971359903994
scalar NetworkMultiRadioIPv4.mobileHost[2].wlan[1].mac 	"CW medio" 	84.224489795918
scalar NetworkMultiRadioIPv4.mobileHost[2].wlan[1].mac 	"CW max" 	1005
scalar NetworkMultiRadioIPv4.mobileHost[2].wlan[1].mac 	"CW dev" 	142.55420026264
scalar NetworkMultiRadioIPv4.mobileHost[2].wlan[1].mac 	"Mean service time" 	0.0034300766184279
scalar NetworkMultiRadioIPv4.mobileHost[2].wlan[1].mac 	numSent 	222
scalar NetworkMultiRadioIPv4.mobileHost[2].wlan[1].mac 	numSentWithoutRetry 	101
scalar NetworkMultiRadioIPv4.mobileHost[2].wlan[1].mac 	numReceived 	509
scalar NetworkMultiRadioIPv4.mobileHost[2].wlan[1].mac 	numSelfReceived 	231
scalar NetworkMultiRadioIPv4.mobileHost[2].wlan[1].mac 	numSentBroadcast 	-1
scalar NetworkMultiRadioIPv4.mobileHost[2].wlan[1].mac 	numReceivedBroadcast 	0
scalar NetworkMultiRadioIPv4.mobileHost[2].wlan[1].mac 	numReceivedOther 	9386
scalar NetworkMultiRadioIPv4.mobileHost[2].wlan[1].mac 	numCollision 	8704
scalar NetworkMultiRadioIPv4.mobileHost[2].wlan[1].mac 	numGivenUp 	7
scalar NetworkMultiRadioIPv4.mobileHost[2].wlan[1].mac 	numAckSend 	509
scalar NetworkMultiRadioIPv4.mobileHost[2].wlan[1].mac 	numRetry 	333
scalar NetworkMultiRadioIPv4.mobileHost[2].wlan[2].mgmt 	"packets received by queue" 	255
scalar NetworkMultiRadioIPv4.mobileHost[2].wlan[2].mgmt 	"packets dropped by queue" 	0
scalar NetworkMultiRadioIPv4.mobileHost[2].wlan[2].mac 	"Mean Frame Length" 	222
scalar NetworkMultiRadioIPv4.mobileHost[2].wlan[2].mac 	"Frame Length stddev" 	0
scalar NetworkMultiRadioIPv4.mobileHost[2].wlan[2].mac 	"Sent Throughput" 	0.022377598910202
scalar NetworkMultiRadioIPv4.mobileHost[2].wlan[2].mac 	"CW medio" 	73.786561264822
scalar NetworkMultiRadioIPv4.mobileHost[2].wlan[2].mac 	"CW max" 	1019
scalar NetworkMultiRadioIPv4.mobileHost[2].wlan[2].mac 	"CW dev" 	144.57861576276
scalar NetworkMultiRadioIPv4.mobileHost[2].wlan[2].mac 	"Mean service time" 	0.0040708406586786
scalar NetworkMultiRadioIPv4.mobileHost[2].wlan[2].mac 	numSent 	252
scalar NetworkMultiRadioIPv4.mobileHost[2].wlan[2].mac 	numSentWithoutRetry 	103
scalar NetworkMultiRadioIPv4.mobileHost[2].wlan[2].mac 	numReceived 	488
scalar NetworkMultiRadioIPv4.mobileHost[2].wlan[2].mac 	numSelfReceived 	255
scalar NetworkMultiRadioIPv4.mobileHost[2].wlan[2].mac 	numSentBroadcast 	-1
scalar NetworkMultiRadioIPv4.mobileHost[2].wlan[2].mac 	numReceivedBroadcast 	0
scalar NetworkMultiRadioIPv4.mobileHost[2].wlan[2].mac 	numReceivedOther 	9494
scalar NetworkMultiRadioIPv4.mobileHost[2].wlan[2].mac 	numCollision 	8731
scalar NetworkMultiRadioIPv4.mobileHost[2].wlan[2].mac 	numGivenUp 	3
scalar NetworkMultiRadioIPv4.mobileHost[2].wlan[2].mac 	numAckSend 	488
scalar NetworkMultiRadioIPv4.mobileHost[2].wlan[2].mac 	numRetry 	332
scalar NetworkMultiRadioIPv4.mobileHost[2].manetRouting.manetmanager.manetroutingprotocol 	"Position X" 	300
scalar NetworkMultiRadioIPv4.mobileHost[2].manetRouting.manetmanager.manetroutingprotocol 	"Position Y" 	0
scalar NetworkMultiRadioIPv4.mobileHost[2].manetRouting.manetmanager.manetroutingprotocol 	lonelyCount 	0
scalar NetworkMultiRadioIPv4.mobileHost[2].manetRouting.manetmanager.manetroutingprotocol 	noNextHopCount 	0
scalar NetworkMultiRadioIPv4.mobileHost[3].udpApp[0] 	"Total send" 	927
scalar NetworkMultiRadioIPv4.mobileHost[3].udpApp[0] 	"Total received" 	1179
scalar NetworkMultiRadioIPv4.mobileHost[3].udpApp[0] 	"Total deleted" 	793
scalar NetworkMultiRadioIPv4.mobileHost[3].udpApp[0] 	"Mean delay" 	0.084741774775323
scalar NetworkMultiRadioIPv4.mobileHost[3].udpApp[0] 	"Min delay" 	0.000181
scalar NetworkMultiRadioIPv4.mobileHost[3].udpApp[0] 	"Max delay" 	0.815439370483
scalar NetworkMultiRadioIPv4.mobileHost[3].udpApp[0] 	"Deviation delay" 	0.15553281130881
scalar NetworkMultiRadioIPv4.mobileHost[3].udpApp[0] 	"TTL27 NumOfBurstsReceived" 	1
scalar NetworkMultiRadioIPv4.mobileHost[3].udpApp[0] 	"TTL27 NumOfPacketsReceived" 	183
scalar NetworkMultiRadioIPv4.mobileHost[3].udpApp[0] 	"TTL28 NumOfBurstsReceived" 	1
scalar NetworkMultiRadioIPv4.mobileHost[3].udpApp[0] 	"TTL28 NumOfPacketsReceived" 	159
scalar NetworkMultiRadioIPv4.mobileHost[3].udpApp[0] 	"TTL30 NumOfBurstsReceived" 	1
scalar NetworkMultiRadioIPv4.mobileHost[3].udpApp[0] 	"TTL30 NumOfPacketsReceived" 	837
scalar NetworkMultiRadioIPv4.mobileHost[3].udpApp[1] 	"Total send" 	0
scalar NetworkMultiRadioIPv4.mobileHost[3].udpApp[1] 	"Total received" 	0
scalar NetworkMultiRadioIPv4.mobileHost[3].udpApp[1] 	"Total deleted" 	0
scalar NetworkMultiRadioIPv4.mobileHost[3].udpApp[1] 	"Mean delay" 	0
scalar NetworkMultiRadioIPv4.mobileHost[3].udpApp[1] 	"Min delay" 	0
scalar NetworkMultiRadioIPv4.mobileHost[3].udpApp[1] 	"Max delay" 	0
scalar NetworkMultiRadioIPv4.mobileHost[3].udpApp[1] 	"Deviation delay" 	nan
scalar NetworkMultiRadioIPv4.mobileHost[3].udpApp[2] 	"Total send" 	928
scalar NetworkMultiRadioIPv4.mobileHost[3].udpApp[2] 	"Total received" 	0
scalar NetworkMultiRadioIPv4.mobileHost[3].udpApp[2] 	"Total deleted" 	0
scalar NetworkMultiRadioIPv4.mobileHost[3].udpApp[2] 	"Mean delay" 	0
scalar NetworkMultiRadioIPv4.mobileHost[3].udpApp[2] 	"Min delay" 	0
scalar NetworkMultiRadioIPv4.mobileHost[3].udpApp[2] 	"Max delay" 	0
scalar NetworkMultiRadioIPv4.mobileHost[3].udpApp[2] 	"Deviation delay" 	nan
scalar NetworkMultiRadioIPv4.mobileHost[3].pingApp 	"Pings sent" 	0
scalar NetworkMultiRadioIPv4.mobileHost[3].wlan[0].mgmt 	"packets received by queue" 	1077
scalar NetworkMultiRadioIPv4.mobileHost[3].wlan[0].mgmt 	"packets dropped by queue" 	0
scalar NetworkMultiRadioIPv4.mobileHost[3].wlan[0].mac 	"Mean Frame Length" 	222
scalar NetworkMultiRadioIPv4.mobileHost[3].wlan[0].mac 	"Frame Length stddev" 	0
scalar NetworkMultiRadioIPv4.mobileHost[3].wlan[0].mac 	"Sent Throughput" 	0.088622395684054
scalar NetworkMultiRadioIPv4.mobileHost[3].wlan[0].mac 	"CW medio" 	107.18034557235
scalar NetworkMultiRadioIPv4.mobileHost[3].wlan[0].mac 	"CW max" 	1023
scalar NetworkMultiRadioIPv4.mobileHost[3].wlan[0].mac 	"CW dev" 	177.11386677213
scalar NetworkMultiRadioIPv4.mobileHost[3].wlan[0].mac 	"Mean service time" 	0.010006214427853
scalar NetworkMultiRadioIPv4.mobileHost[3].wlan[0].mac 	numSent 	998
scalar NetworkMultiRadioIPv4.mobileHost[3].wlan[0].mac 	numSentWithoutRetry 	357
scalar NetworkMultiRadioIPv4.mobileHost[3].wlan[0].mac 	numReceived 	1139
scalar NetworkMultiRadioIPv4.mobileHost[3].wlan[0].mac 	numSelfReceived 	1077
scalar NetworkMultiRadioIPv4.mobileHost[3].wlan[0].mac 	numSentBroadcast 	-1
scalar NetworkMultiRadioIPv4.mobileHost[3].wlan[0].mac 	numReceivedBroadcast 	0
scalar NetworkMultiRadioIPv4.mobileHost[3].wlan[0].mac 	numReceivedOther 	6791
scalar NetworkMultiRadioIPv4.mobileHost[3].wlan[0].mac 	numCollision 	7914
scalar NetworkMultiRadioIPv4.mobileHost[3].wlan[0].mac 	numGivenUp 	79
scalar NetworkMultiRadioIPv4.mobileHost[3].wlan[0].mac 	numAckSend 	1139
scalar NetworkMultiRadioIPv4.mobileHost[3].wlan[0].mac 	numRetry 	2029
scalar NetworkMultiRadioIPv4.mobileHost[3].wlan[1].mgmt 	"packets received by queue" 	1053
scalar NetworkMultiRadioIPv4.mobileHost[3].wlan[1].mgmt 	"packets dropped by queue" 	0
scalar NetworkMultiRadioIPv4.mobileHost[3].wlan[1].mac 	"Mean Frame Length" 	222
scalar NetworkMultiRadioIPv4.mobileHost[3].wlan[1].mac 	"Frame Length stddev" 	0
scalar NetworkMultiRadioIPv4.mobileHost[3].wlan[1].mac 	"Sent Throughput" 	0.087556795735949
scalar NetworkMultiRadioIPv4.mobileHost[3].wlan[1].mac 	"CW medio" 	105.66130329847
scalar NetworkMultiRadioIPv4.mobileHost[3].wlan[1].mac 	"CW max" 	1021
scalar NetworkMultiRadioIPv4.mobileHost[3].wlan[1].mac 	"CW dev" 	182.2414420105
scalar NetworkMultiRadioIPv4.mobileHost[3].wlan[1].mac 	"Mean service time" 	0.0077882038963002
scalar NetworkMultiRadioIPv4.mobileHost[3].wlan[1].mac 	numSent 	986
scalar NetworkMultiRadioIPv4.mobileHost[3].wlan[1].mac 	numSentWithoutRetry 	379
scalar NetworkMultiRadioIPv4.mobileHost[3].wlan[1].mac 	numReceived 	1090
scalar NetworkMultiRadioIPv4.mobileHost[3].wlan[1].mac 	numSelfReceived 	1053
scalar NetworkMultiRadioIPv4.mobileHost[3].wlan[1].mac 	numSentBroadcast 	-1
scalar NetworkMultiRadioIPv4.mobileHost[3].wlan[1].mac 	numReceivedBroadcast 	0
scalar NetworkMultiRadioIPv4.mobileHost[3].wlan[1].mac 	numReceivedOther 	6559
scalar NetworkMultiRadioIPv4.mobileHost[3].wlan[1].mac 	numCollision 	7422
scalar NetworkMultiRadioIPv4.mobileHost[3].wlan[1].mac 	numGivenUp 	66
scalar NetworkMultiRadioIPv4.mobileHost[3].wlan[1].mac 	numAckSend 	1090
scalar NetworkMultiRadioIPv4.mobileHost[3].wlan[1].mac 	numRetry 	1798
scalar NetworkMultiRadioIPv4.mobileHost[3].wlan[2].mgmt 	"packets received by queue" 	1022
scalar NetworkMultiRadioIPv4.mobileHost[3].wlan[2].mgmt 	"packets dropped by queue" 	0
scalar NetworkMultiRadioIPv4.mobileHost[3].wlan[2].mac 	"Mean Frame Length" 	222
scalar NetworkMultiRadioIPv4.mobileHost[3].wlan[2].mac 	"Frame Length stddev" 	0
scalar NetworkMultiRadioIPv4.mobileHost[3].wlan[2].mac 	"Sent Throughput" 	0.084359995891634
scalar NetworkMultiRadioIPv4.mobileHost[3].wlan[2].mac 	"CW medio" 	107.18152480839
scalar NetworkMultiRadioIPv4.mobileHost[3].wlan[2].mac 	"CW max" 	1020
scalar NetworkMultiRadioIPv4.mobileHost[3].wlan[2].mac 	"CW dev" 	180.77682823819
scalar NetworkMultiRadioIPv4.mobileHost[3].wlan[2].mac 	"Mean service time" 	0.0082446289461789
scalar NetworkMultiRadioIPv4.mobileHost[3].wlan[2].mac 	numSent 	950
scalar NetworkMultiRadioIPv4.mobileHost[3].wlan[2].mac 	numSentWithoutRetry 	347
scalar NetworkMultiRadioIPv4.mobileHost[3].wlan[2].mac 	numReceived 	1117
scalar NetworkMultiRadioIPv4.mobileHost[3].wlan[2].mac 	numSelfReceived 	1022
scalar NetworkMultiRadioIPv4.mobileHost[3].wlan[2].mac 	numSentBroadcast 	-1
scalar NetworkMultiRadioIPv4.mobileHost[3].wlan[2].mac 	numReceivedBroadcast 	0
scalar NetworkMultiRadioIPv4.mobileHost[3].wlan[2].mac 	numReceivedOther 	6667
scalar NetworkMultiRadioIPv4.mobileHost[3].wlan[2].mac 	numCollision 	7360
scalar NetworkMultiRadioIPv4.mobileHost[3].wlan[2].mac 	numGivenUp 	72
scalar NetworkMultiRadioIPv4.mobileHost[3].wlan[2].mac 	numAckSend 	1117
scalar NetworkMultiRadioIPv4.mobileHost[3].wlan[2].mac 	numRetry 	1820
scalar NetworkMultiRadioIPv4.mobileHost[3].manetRouting.manetmanager.manetroutingprotocol 	"Position X" 	450
scalar NetworkMultiRadioIPv4.mobileHost[3].manetRouting.manetmanager.manetroutingprotocol 	"Position Y" 	0
scalar NetworkMultiRadioIPv4.mobileHost[3].manetRouting.manetmanager.manetroutingprotocol 	lonelyCount 	0
scalar NetworkMultiRadioIPv4.mobileHost[3].manetRouting.manetmanager.manetroutingprotocol 	noNextHopCount 	0
scalar NetworkMultiRadioIPv4.mobileHost[4].udpApp[0] 	"Total send" 	929
scalar NetworkMultiRadioIPv4.mobileHost[4].udpApp[0] 	"Total received" 	1173
scalar NetworkMultiRadioIPv4.mobileHost[4].udpApp[0] 	"Total deleted" 	263
scalar NetworkMultiRadioIPv4.mobileHost[4].udpApp[0] 	"Mean delay" 	0.019704311043852
scalar NetworkMultiRadioIPv4.mobileHost[4].udpApp[0] 	"Min delay" 	9.05e-05
scalar NetworkMultiRadioIPv4.mobileHost[4].udpApp[0] 	"Max delay" 	0.165989311414
scalar NetworkMultiRadioIPv4.mobileHost[4].udpApp[0] 	"Deviation delay" 	0.028355554085519
scalar NetworkMultiRadioIPv4.mobileHost[4].udpApp[0] 	"TTL28 NumOfBurstsReceived" 	1
scalar NetworkMultiRadioIPv4.mobileHost[4].udpApp[0] 	"TTL28 NumOfPacketsReceived" 	351
scalar NetworkMultiRadioIPv4.mobileHost[4].udpApp[0] 	"TTL31 NumOfBurstsReceived" 	1
scalar NetworkMultiRadioIPv4.mobileHost[4].udpApp[0] 	"TTL31 NumOfPacketsReceived" 	822
scalar NetworkMultiRadioIPv4.mobileHost[4].udpApp[1] 	"Total send" 	0
scalar NetworkMultiRadioIPv4.mobileHost[4].udpApp[1] 	"Total received" 	0
scalar NetworkMultiRadioIPv4.mobileHost[4].udpApp[1] 	"Total deleted" 	0
scalar NetworkMultiRadioIPv4.mobileHost[4].udpApp[1] 	"Mean delay" 	0
scalar NetworkMultiRadioIPv4.mobileHost[4].udpApp[1] 	"Min delay" 	0
scalar NetworkMultiRadioIPv4.mobileHost[4].udpApp[1] 	"Max delay" 	0
scalar NetworkMultiRadioIPv4.mobileHost[4].udpApp[1] 	"Deviation delay" 	nan
scalar NetworkMultiRadioIPv4.mobileHost[4].udpApp[2] 	"Total send" 	0
scalar NetworkMultiRadioIPv4.mobileHost[4].udpApp[2] 	"Total received" 	0
scalar NetworkMultiRadioIPv4.mobileHost[4].udpApp[2] 	"Total deleted" 	0
scalar NetworkMultiRadioIPv4.mobileHost[4].udpApp[2] 	"Mean delay" 	0
scalar NetworkMultiRadioIPv4.mobileHost[4].udpApp[2] 	"Min delay" 	0
scalar NetworkMultiRadioIPv4.mobileHost[4].udpApp[2] 	"Max delay" 	0
scalar NetworkMultiRadioIPv4.mobileHost[4].udpApp[2] 	"Deviation delay" 	nan
scalar NetworkMultiRadioIPv4.mobileHost[4].pingApp 	"Pings sent" 	0
scalar NetworkMultiRadioIPv4.mobileHost[4].wlan[0].mgmt 	"packets received by queue" 	575
scalar NetworkMultiRadioIPv4.mobileHost[4].wlan[0].mgmt 	"packets dropped by queue" 	0
scalar NetworkMultiRadioIPv4.mobileHost[4].wlan[0].mac 	"Mean Frame Length" 	222
scalar NetworkMultiRadioIPv4.mobileHost[4].wlan[0].mac 	"Frame Length stddev" 	0
scalar NetworkMultiRadioIPv4.mobileHost[4].wlan[0].mac 	"Sent Throughput" 	0.049017597612823
scalar NetworkMultiRadioIPv4.mobileHost[4].wlan[0].mac 	"CW medio" 	90.897147796024
scalar NetworkMultiRadioIPv4.mobileHost[4].wlan[0].mac 	"CW max" 	1022
scalar NetworkMultiRadioIPv4.mobileHost[4].wlan[0].mac 	"CW dev" 	162.44238467718
scalar NetworkMultiRadioIPv4.mobileHost[4].wlan[0].mac 	"Mean service time" 	0.0042015813936087
scalar NetworkMultiRadioIPv4.mobileHost[4].wlan[0].mac 	numSent 	552
scalar NetworkMultiRadioIPv4.mobileHost[4].wlan[0].mac 	numSentWithoutRetry 	235
scalar NetworkMultiRadioIPv4.mobileHost[4].wlan[0].mac 	numReceived 	784
scalar NetworkMultiRadioIPv4.mobileHost[4].wlan[0].mac 	numSelfReceived 	575
scalar NetworkMultiRadioIPv4.mobileHost[4].wlan[0].mac 	numSentBroadcast 	-1
scalar NetworkMultiRadioIPv4.mobileHost[4].wlan[0].mac 	numReceivedBroadcast 	0
scalar NetworkMultiRadioIPv4.mobileHost[4].wlan[0].mac 	numReceivedOther 	7273
scalar NetworkMultiRadioIPv4.mobileHost[4].wlan[0].mac 	numCollision 	7517
scalar NetworkMultiRadioIPv4.mobileHost[4].wlan[0].mac 	numGivenUp 	23
scalar NetworkMultiRadioIPv4.mobileHost[4].wlan[0].mac 	numAckSend 	784
scalar NetworkMultiRadioIPv4.mobileHost[4].wlan[0].mac 	numRetry 	832
scalar NetworkMultiRadioIPv4.mobileHost[4].wlan[1].mgmt 	"packets received by queue" 	607
scalar NetworkMultiRadioIPv4.mobileHost[4].wlan[1].mgmt 	"packets dropped by queue" 	0
scalar NetworkMultiRadioIPv4.mobileHost[4].wlan[1].mac 	"Mean Frame Length" 	222
scalar NetworkMultiRadioIPv4.mobileHost[4].wlan[1].mac 	"Frame Length stddev" 	0
scalar NetworkMultiRadioIPv4.mobileHost[4].wlan[1].mac 	"Sent Throughput" 	0.05256959743984
scalar NetworkMultiRadioIPv4.mobileHost[4].wlan[1].mac 	"CW medio" 	84.864610111397
scalar NetworkMultiRadioIPv4.mobileHost[4].wlan[1].mac 	"CW max" 	1017
scalar NetworkMultiRadioIPv4.mobileHost[4].wlan[1].mac 	"CW dev" 	152.07103887603
scalar NetworkMultiRadioIPv4.mobileHost[4].wlan[1].mac 	"Mean service time" 	0.0041813513701807
scalar NetworkMultiRadioIPv4.mobileHost[4].wlan[1].mac 	numSent 	592
scalar NetworkMultiRadioIPv4.mobileHost[4].wlan[1].mac 	numSentWithoutRetry 	260
scalar NetworkMultiRadioIPv4.mobileHost[4].wlan[1].mac 	numReceived 	771
scalar NetworkMultiRadioIPv4.mobileHost[4].wlan[1].mac 	numSelfReceived 	607
scalar NetworkMultiRadioIPv4.mobileHost[4].wlan[1].mac 	numSentBroadcast 	-1
scalar NetworkMultiRadioIPv4.mobileHost[4].wlan[1].mac 	numReceivedBroadcast 	0
scalar NetworkMultiRadioIPv4.mobileHost[4].wlan[1].mac 	numReceivedOther 	6957
scalar NetworkMultiRadioIPv4.mobileHost[4].wlan[1].mac 	numCollision 	6802
scalar NetworkMultiRadioIPv4.mobileHost[4].wlan[1].mac 	numGivenUp 	15
scalar NetworkMultiRadioIPv4.mobileHost[4].wlan[1].mac 	numAckSend 	771
scalar NetworkMultiRadioIPv4.mobileHost[4].wlan[1].mac 	numRetry 	825
scalar NetworkMultiRadioIPv4.mobileHost[4].wlan[2].mgmt 	"packets received by queue" 	615
scalar NetworkMultiRadioIPv4.mobileHost[4].wlan[2].mgmt 	"packets dropped by queue" 	0
scalar NetworkMultiRadioIPv4.mobileHost[4].wlan[2].mac 	"Mean Frame Length" 	222
scalar NetworkMultiRadioIPv4.mobileHost[4].wlan[2].mac 	"Frame Length stddev" 	0
scalar NetworkMultiRadioIPv4.mobileHost[4].wlan[2].mac 	"Sent Throughput" 	0.052924797422541
scalar NetworkMultiRadioIPv4.mobileHost[4].wlan[2].mac 	"CW medio" 	83.105130361648
scalar NetworkMultiRadioIPv4.mobileHost[4].wlan[2].mac 	"CW max" 	1019
scalar NetworkMultiRadioIPv4.mobileHost[4].wlan[2].mac 	"CW dev" 	144.94854497078
scalar NetworkMultiRadioIPv4.mobileHost[4].wlan[2].mac 	"Mean service time" 	0.0037933437946477
scalar NetworkMultiRadioIPv4.mobileHost[4].wlan[2].mac 	numSent 	596
scalar NetworkMultiRadioIPv4.mobileHost[4].wlan[2].mac 	numSentWithoutRetry 	249
scalar NetworkMultiRadioIPv4.mobileHost[4].wlan[2].mac 	numReceived 	771
scalar NetworkMultiRadioIPv4.mobileHost[4].wlan[2].mac 	numSelfReceived 	615
scalar NetworkMultiRadioIPv4.mobileHost[4].wlan[2].mac 	numSentBroadcast 	-1
scalar NetworkMultiRadioIPv4.mobileHost[4].wlan[2].mac 	numReceivedBroadcast 	0
scalar NetworkMultiRadioIPv4.mobileHost[4].wlan[2].mac 	numReceivedOther 	7118
scalar NetworkMultiRadioIPv4.mobileHost[4].wlan[2].mac 	numCollision 	6808
scalar NetworkMultiRadioIPv4.mobileHost[4].wlan[2].mac 	numGivenUp 	19
scalar NetworkMultiRadioIPv4.mobileHost[4].wlan[2].mac 	numAckSend 	771
scalar NetworkMultiRadioIPv4.mobileHost[4].wlan[2].mac 	numRetry 	854
scalar NetworkMultiRadioIPv4.mobileHost[4].manetRouting.manetmanager.manetroutingprotocol 	"Position X" 	600
scalar NetworkMultiRadioIPv4.mobileHost[4].manetRouting.manetmanager.manetroutingprotocol 	"Position Y" 	0
scalar NetworkMultiRadioIPv4.mobileHost[4].manetRouting.manetmanager.manetroutingprotocol 	lonelyCount 	0
scalar NetworkMultiRadioIPv4.mobileHost[4].manetRouting.manetmanager.manetroutingprotocol 	noNextHopCount 	0
scalar NetworkMultiRadioIPv4.mobileHost[5].udpApp[0] 	"Total send" 	0
scalar NetworkMultiRadioIPv4.mobileHost[5].udpApp[0] 	"Total received" 	1094
scalar NetworkMultiRadioIPv4.mobileHost[5].udpApp[0] 	"Total deleted" 	337
scalar NetworkMultiRadioIPv4.mobileHost[5].udpApp[0] 	"Mean delay" 	0.15366084012888
scalar NetworkMultiRadioIPv4.mobileHost[5].udpApp[0] 	"Min delay" 	9.05e-05
scalar NetworkMultiRadioIPv4.mobileHost[5].udpApp[0] 	"Max delay" 	1.296841298135
scalar NetworkMultiRadioIPv4.mobileHost[5].udpApp[0] 	"Deviation delay" 	0.35381080727533
scalar NetworkMultiRadioIPv4.mobileHost[5].udpApp[0] 	"TTL29 NumOfBurstsReceived" 	1
scalar NetworkMultiRadioIPv4.mobileHost[5].udpApp[0] 	"TTL29 NumOfPacketsReceived" 	225
scalar NetworkMultiRadioIPv4.mobileHost[5].udpApp[0] 	"TTL31 NumOfBurstsReceived" 	1
scalar NetworkMultiRadioIPv4.mobileHost[5].udpApp[0] 	"TTL31 NumOfPacketsReceived" 	869
scalar NetworkMultiRadioIPv4.mobileHost[5].udpApp[1] 	"Total send" 	928
scalar NetworkMultiRadioIPv4.mobileHost[5].udpApp[1] 	"Total received" 	0
scalar NetworkMultiRadioIPv4.mobileHost[5].udpApp[1] 	"Total deleted" 	0
scalar NetworkMultiRadioIPv4.mobileHost[5].udpApp[1] 	"Mean delay" 	0
scalar NetworkMultiRadioIPv4.mobileHost[5].udpApp[1] 	"Min delay" 	0
scalar NetworkMultiRadioIPv4.mobileHost[5].udpApp[1] 	"Max delay" 	0
scalar NetworkMultiRadioIPv4.mobileHost[5].udpApp[1] 	"Deviation delay" 	nan
scalar NetworkMultiRadioIPv4.mobileHost[5].udpApp[2] 	"Total send" 	0
scalar NetworkMultiRadioIPv4.mobileHost[5].udpApp[2] 	"Total received" 	0
scalar NetworkMultiRadioIPv4.mobileHost[5].udpApp[2] 	"Total deleted" 	0
scalar NetworkMultiRadioIPv4.mobileHost[5].udpApp[2] 	"Mean delay" 	0
scalar NetworkMultiRadioIPv4.mobileHost[5].udpApp[2] 	"Min delay" 	0
scalar NetworkMultiRadioIPv4.mobileHost[5].udpApp[2] 	"Max delay" 	0
scalar NetworkMultiRadioIPv4.mobileHost[5].udpApp[2] 	"Deviation delay" 	nan
scalar NetworkMultiRadioIPv4.mobileHost[5].pingApp 	"Pings sent" 	0
scalar NetworkMultiRadioIPv4.mobileHost[5].wlan[0].mgmt 	"packets received by queue" 	306
scalar NetworkMultiRadioIPv4.mobileHost[5].wlan[0].mgmt 	"packets dropped by queue" 	0
scalar NetworkMultiRadioIPv4.mobileHost[5].wlan[0].mac 	"Mean Frame Length" 	222
scalar NetworkMultiRadioIPv4.mobileHost[5].wlan[0].mac 	"Frame Length stddev" 	0
scalar NetworkMultiRadioIPv4.mobileHost[5].wlan[0].mac 	"Sent Throughput" 	0.025929598737218
scalar NetworkMultiRadioIPv4.mobileHost[5].wlan[0].mac 	"CW medio" 	107.20884955752
scalar NetworkMultiRadioIPv4.mobileHost[5].wlan[0].mac 	"CW max" 	1013
scalar NetworkMultiRadioIPv4.mobileHost[5].wlan[0].mac 	"CW dev" 	162.73686150273
scalar NetworkMultiRadioIPv4.mobileHost[5].wlan[0].mac 	"Mean service time" 	0.00331783205825
scalar NetworkMultiRadioIPv4.mobileHost[5].wlan[0].mac 	numSent 	292
scalar NetworkMultiRadioIPv4.mobileHost[5].wlan[0].mac 	numSentWithoutRetry 	108
scalar NetworkMultiRadioIPv4.mobileHost[5].wlan[0].mac 	numReceived 	494
scalar NetworkMultiRadioIPv4.mobileHost[5].wlan[0].mac 	numSelfReceived 	306
scalar NetworkMultiRadioIPv4.mobileHost[5].wlan[0].mac 	numSentBroadcast 	-1
scalar NetworkMultiRadioIPv4.mobileHost[5].wlan[0].mac 	numReceivedBroadcast 	0
scalar NetworkMultiRadioIPv4.mobileHost[5].wlan[0].mac 	numReceivedOther 	3454
scalar NetworkMultiRadioIPv4.mobileHost[5].wlan[0].mac 	numCollision 	3865
scalar NetworkMultiRadioIPv4.mobileHost[5].wlan[0].mac 	numGivenUp 	14
scalar NetworkMultiRadioIPv4.mobileHost[5].wlan[0].mac 	numAckSend 	494
scalar NetworkMultiRadioIPv4.mobileHost[5].wlan[0].mac 	numRetry 	493
scalar NetworkMultiRadioIPv4.mobileHost[5].wlan[1].mgmt 	"packets received by queue" 	318
scalar NetworkMultiRadioIPv4.mobileHost[5].wlan[1].mgmt 	"packets dropped by queue" 	0
scalar NetworkMultiRadioIPv4.mobileHost[5].wlan[1].mac 	"Mean Frame Length" 	222
scalar NetworkMultiRadioIPv4.mobileHost[5].wlan[1].mac 	"Frame Length stddev" 	0
scalar NetworkMultiRadioIPv4.mobileHost[5].wlan[1].mac 	"Sent Throughput" 	0.0274391986637
scalar NetworkMultiRadioIPv4.mobileHost[5].wlan[1].mac 	"CW medio" 	107.39846743295
scalar NetworkMultiRadioIPv4.mobileHost[5].wlan[1].mac 	"CW max" 	985
scalar NetworkMultiRadioIPv4.mobileHost[5].wlan[1].mac 	"CW dev" 	174.59846513746
scalar NetworkMultiRadioIPv4.mobileHost[5].wlan[1].mac 	"Mean service time" 	0.0030456398742524
scalar NetworkMultiRadioIPv4.mobileHost[5].wlan[1].mac 	numSent 	309
scalar NetworkMultiRadioIPv4.mobileHost[5].wlan[1].mac 	numSentWithoutRetry 	132
scalar NetworkMultiRadioIPv4.mobileHost[5].wlan[1].mac 	numReceived 	468
scalar NetworkMultiRadioIPv4.mobileHost[5].wlan[1].mac 	numSelfReceived 	318
scalar NetworkMultiRadioIPv4.mobileHost[5].wlan[1].mac 	numSentBroadcast 	-1
scalar NetworkMultiRadioIPv4.mobileHost[5].wlan[1].mac 	numReceivedBroadcast 	0
scalar NetworkMultiRadioIPv4.mobileHost[5].wlan[1].mac 	numReceivedOther 	3482
scalar NetworkMultiRadioIPv4.mobileHost[5].wlan[1].mac 	numCollision 	3693
scalar NetworkMultiRadioIPv4.mobileHost[5].wlan[1].mac 	numGivenUp 	9
scalar NetworkMultiRadioIPv4.mobileHost[5].wlan[1].mac 	numAckSend 	468
scalar NetworkMultiRadioIPv4.mobileHost[5].wlan[1].mac 	numRetry 	449
scalar NetworkMultiRadioIPv4.mobileHost[5].wlan[2].mgmt 	"packets received by queue" 	304
scalar NetworkMultiRadioIPv4.mobileHost[5].wlan[2].mgmt 	"packets dropped by queue" 	0
scalar NetworkMultiRadioIPv4.mobileHost[5].wlan[2].mac 	"Mean Frame Length" 	222
scalar NetworkMultiRadioIPv4.mobileHost[5].wlan[2].mac 	"Frame Length stddev" 	0
scalar NetworkMultiRadioIPv4.mobileHost[5].wlan[2].mac 	"Sent Throughput" 	0.025663198750192
scalar NetworkMultiRadioIPv4.mobileHost[5].wlan[2].mac 	"CW medio" 	116.86666666667
scalar NetworkMultiRadioIPv4.mobileHost[5].wlan[2].mac 	"CW max" 	1014
scalar NetworkMultiRadioIPv4.mobileHost[5].wlan[2].mac 	"CW dev" 	183.19275330553
scalar NetworkMultiRadioIPv4.mobileHost[5].wlan[2].mac 	"Mean service time" 	0.0035150256839723
scalar NetworkMultiRadioIPv4.mobileHost[5].wlan[2].mac 	numSent 	289
scalar NetworkMultiRadioIPv4.mobileHost[5].wlan[2].mac 	numSentWithoutRetry 	102
scalar NetworkMultiRadioIPv4.mobileHost[5].wlan[2].mac 	numReceived 	469
scalar NetworkMultiRadioIPv4.mobileHost[5].wlan[2].mac 	numSelfReceived 	304
scalar NetworkMultiRadioIPv4.mobileHost[5].wlan[2].mac 	numSentBroadcast 	-1
scalar NetworkMultiRadioIPv4.mobileHost[5].wlan[2].mac 	numReceivedBroadcast 	0
scalar NetworkMultiRadioIPv4.mobileHost[5].wlan[2].mac 	numReceivedOther 	3578
scalar NetworkMultiRadioIPv4.mobileHost[5].wlan[2].mac 	numCollision 	3657
scalar NetworkMultiRadioIPv4.mobileHost[5].wlan[2].mac 	numGivenUp 	15
scalar NetworkMultiRadioIPv4.mobileHost[5].wlan[2].mac 	numAckSend 	469
scalar NetworkMultiRadioIPv4.mobileHost[5].wlan[2].mac 	numRetry 	531
scalar NetworkMultiRadioIPv4.mobileHost[5].manetRouting.manetmanager.manetroutingprotocol 	"Position X" 	750
scalar NetworkMultiRadioIPv4.mobileHost[5].manetRouting.manetmanager.manetroutingprotocol 	"Position Y" 	0
scalar NetworkMultiRadioIPv4.mobileHost[5].manetRouting.manetmanager.manetroutingprotocol 	lonelyCount 	0
scalar NetworkMultiRadioIPv4.mobileHost[5].manetRouting.manetmanager.manetroutingprotocol 	noNextHopCount 	0
scalar NetworkMultiRadioIPv4.mobileHost[6].udpApp[0] 	"Total send" 	0
scalar NetworkMultiRadioIPv4.mobileHost[6].udpApp[0] 	"Total received" 	1286
scalar NetworkMultiRadioIPv4.mobileHost[6].udpApp[0] 	"Total deleted" 	244
scalar NetworkMultiRadioIPv4.mobileHost[6].udpApp[0] 	"Mean delay" 	0.017810849917356
scalar NetworkMultiRadioIPv4.mobileHost[6].udpApp[0] 	"Min delay" 	9.05e-05
scalar NetworkMultiRadioIPv4.mobileHost[6].udpApp[0] 	"Max delay" 	0.185458426991
scalar NetworkMultiRadioIPv4.mobileHost[6].udpApp[0] 	"Deviation delay" 	0.026541763830224
scalar NetworkMultiRadioIPv4.mobileHost[6].udpApp[0] 	"TTL28 NumOfBurstsReceived" 	1
scalar NetworkMultiRadioIPv4.mobileHost[6].udpApp[0] 	"TTL28 NumOfPacketsReceived" 	424
scalar NetworkMultiRadioIPv4.mobileHost[6].udpApp[0] 	"TTL31 NumOfBurstsReceived" 	1
scalar NetworkMultiRadioIPv4.mobileHost[6].udpApp[0] 	"TTL31 NumOfPacketsReceived" 	862
scalar NetworkMultiRadioIPv4.mobileHost[6].udpApp[1] 	"Total send" 	927
scalar NetworkMultiRadioIPv4.mobileHost[6].udpApp[1] 	"Total received" 	0
scalar NetworkMultiRadioIPv4.mobileHost[6].udpApp[1] 	"Total deleted" 	0
scalar NetworkMultiRadioIPv4.mobileHost[6].udpApp[1] 	"Mean delay" 	0
scalar NetworkMultiRadioIPv4.mobileHost[6].udpApp[1] 	"Min delay" 	0
scalar NetworkMultiRadioIPv4.mobileHost[6].udpApp[1] 	"Max delay" 	0
scalar NetworkMultiRadioIPv4.mobileHost[6].udpApp[1] 	"Deviation delay" 	nan
scalar NetworkMultiRadioIPv4.mobileHost[6].udpApp[2] 	"Total send" 	0
scalar NetworkMultiRadioIPv4.mobileHost[6].udpApp[2] 	"Total received" 	0
scalar NetworkMultiRadioIPv4.mobileHost[6].udpApp[2] 	"Total deleted" 	0
scalar NetworkMultiRadioIPv4.mobileHost[6].udpApp[2] 	"Mean delay" 	0
scalar NetworkMultiRadioIPv4.mobileHost[6].udpApp[2] 	"Min delay" 	0
scalar NetworkMultiRadioIPv4.mobileHost[6].udpApp[2] 	"Max delay" 	0
scalar NetworkMultiRadioIPv4.mobileHost[6].udpApp[2] 	"Deviation delay" 	nan
scalar NetworkMultiRadioIPv4.mobileHost[6].pingApp 	"Pings sent" 	0
scalar NetworkMultiRadioIPv4.mobileHost[6].wlan[0].mgmt 	"packets received by queue" 	357
scalar NetworkMultiRadioIPv4.mobileHost[6].wlan[0].mgmt 	"packets dropped by queue" 	0
scalar NetworkMultiRadioIPv4.mobileHost[6].wlan[0].mac 	"Mean Frame Length" 	222
scalar NetworkMultiRadioIPv4.mobileHost[6].wlan[0].mac 	"Frame Length stddev" 	0
scalar NetworkMultiRadioIPv4.mobileHost[6].wlan[0].mac 	"Sent Throughput" 	0.024508798806412
scalar NetworkMultiRadioIPv4.mobileHost[6].wlan[0].mac 	"CW medio" 	158.33682514102
scalar NetworkMultiRadioIPv4.mobileHost[6].wlan[0].mac 	"CW max" 	1019
scalar NetworkMultiRadioIPv4.mobileHost[6].wlan[0].mac 	"CW dev" 	221.49708584534
scalar NetworkMultiRadioIPv4.mobileHost[6].wlan[0].mac 	"Mean service time" 	0.0075364067884275
scalar NetworkMultiRadioIPv4.mobileHost[6].wlan[0].mac 	numSent 	276
scalar NetworkMultiRadioIPv4.mobileHost[6].wlan[0].mac 	numSentWithoutRetry 	74
scalar NetworkMultiRadioIPv4.mobileHost[6].wlan[0].mac 	numReceived 	499
scalar NetworkMultiRadioIPv4.mobileHost[6].wlan[0].mac 	numSelfReceived 	357
scalar NetworkMultiRadioIPv4.mobileHost[6].wlan[0].mac 	numSentBroadcast 	-1
scalar NetworkMultiRadioIPv4.mobileHost[6].wlan[0].mac 	numReceivedBroadcast 	0
scalar NetworkMultiRadioIPv4.mobileHost[6].wlan[0].mac 	numReceivedOther 	6192
scalar NetworkMultiRadioIPv4.mobileHost[6].wlan[0].mac 	numCollision 	6840
scalar NetworkMultiRadioIPv4.mobileHost[6].wlan[0].mac 	numGivenUp 	81
scalar NetworkMultiRadioIPv4.mobileHost[6].wlan[0].mac 	numAckSend 	499
scalar NetworkMultiRadioIPv4.mobileHost[6].wlan[0].mac 	numRetry 	1072
scalar NetworkMultiRadioIPv4.mobileHost[6].wlan[1].mgmt 	"packets received by queue" 	275
scalar NetworkMultiRadioIPv4.mobileHost[6].wlan[1].mgmt 	"packets dropped by queue" 	0
scalar NetworkMultiRadioIPv4.mobileHost[6].wlan[1].mac 	"Mean Frame Length" 	222
scalar NetworkMultiRadioIPv4.mobileHost[6].wlan[1].mac 	"Frame Length stddev" 	0
scalar NetworkMultiRadioIPv4.mobileHost[6].wlan[1].mac 	"Sent Throughput" 	0.020246399013992
scalar NetworkMultiRadioIPv4.mobileHost[6].wlan[1].mac 	"CW medio" 	144.21296296296
scalar NetworkMultiRadioIPv4.mobileHost[6].wlan[1].mac 	"CW max" 	1017
scalar NetworkMultiRadioIPv4.mobileHost[6].wlan[1].mac 	"CW dev" 	201.17281507087
scalar NetworkMultiRadioIPv4.mobileHost[6].wlan[1].mac 	"Mean service time" 	0.0063064993129605
scalar NetworkMultiRadioIPv4.mobileHost[6].wlan[1].mac 	numSent 	228
scalar NetworkMultiRadioIPv4.mobileHost[6].wlan[1].mac 	numSentWithoutRetry 	55
scalar NetworkMultiRadioIPv4.mobileHost[6].wlan[1].mac 	numReceived 	509
scalar NetworkMultiRadioIPv4.mobileHost[6].wlan[1].mac 	numSelfReceived 	275
scalar NetworkMultiRadioIPv4.mobileHost[6].wlan[1].mac 	numSentBroadcast 	-1
scalar NetworkMultiRadioIPv4.mobileHost[6].wlan[1].mac 	numReceivedBroadcast 	0
scalar NetworkMultiRadioIPv4.mobileHost[6].wlan[1].mac 	numReceivedOther 	6234
scalar NetworkMultiRadioIPv4.mobileHost[6].wlan[1].mac 	numCollision 	6594
scalar NetworkMultiRadioIPv4.mobileHost[6].wlan[1].mac 	numGivenUp 	47
scalar NetworkMultiRadioIPv4.mobileHost[6].wlan[1].mac 	numAckSend 	509
scalar NetworkMultiRadioIPv4.mobileHost[6].wlan[1].mac 	numRetry 	754
scalar NetworkMultiRadioIPv4.mobileHost[6].wlan[2].mgmt 	"packets received by queue" 	295
scalar NetworkMultiRadioIPv4.mobileHost[6].wlan[2].mgmt 	"packets dropped by queue" 	0
scalar NetworkMultiRadioIPv4.mobileHost[6].wlan[2].mac 	"Mean Frame Length" 	222
scalar NetworkMultiRadioIPv4.mobileHost[6].wlan[2].mac 	"Frame Length stddev" 	0
scalar NetworkMultiRadioIPv4.mobileHost[6].wlan[2].mac 	"Sent Throughput" 	0.021311998962097
scalar NetworkMultiRadioIPv4.mobileHost[6].wlan[2].mac 	"CW medio" 	148.86652314316
scalar NetworkMultiRadioIPv4.mobileHost[6].wlan[2].mac 	"CW max" 	1019
scalar NetworkMultiRadioIPv4.mobileHost[6].wlan[2].mac 	"CW dev" 	217.92264091496
scalar NetworkMultiRadioIPv4.mobileHost[6].wlan[2].mac 	"Mean service time" 	0.0066622932092417
scalar NetworkMultiRadioIPv4.mobileHost[6].wlan[2].mac 	numSent 	240
scalar NetworkMultiRadioIPv4.mobileHost[6].wlan[2].mac 	numSentWithoutRetry 	66
scalar NetworkMultiRadioIPv4.mobileHost[6].wlan[2].mac 	numReceived 	522
scalar NetworkMultiRadioIPv4.mobileHost[6].wlan[2].mac 	numSelfReceived 	295
scalar NetworkMultiRadioIPv4.mobileHost[6].wlan[2].mac 	numSentBroadcast 	-1
scalar NetworkMultiRadioIPv4.mobileHost[6].wlan[2].mac 	numReceivedBroadcast 	0
scalar NetworkMultiRadioIPv4.mobileHost[6].wlan[2].mac 	numReceivedOther 	6156
scalar NetworkMultiRadioIPv4.mobileHost[6].wlan[2].mac 	numCollision 	6468
scalar NetworkMultiRadioIPv4.mobileHost[6].wlan[2].mac 	numGivenUp 	55
scalar NetworkMultiRadioIPv4.mobileHost[6].wlan[2].mac 	numAckSend 	522
scalar NetworkMultiRadioIPv4.mobileHost[6].wlan[2].mac 	numRetry 	783
scalar NetworkMultiRadioIPv4.mobileHost[6].manetRouting.manetmanager.manetroutingprotocol 	"Position X" 	0
scalar NetworkMultiRadioIPv4.mobileHost[6].manetRouting.manetmanager.manetroutingprotocol 	"Position Y" 	150
scalar NetworkMultiRadioIPv4.mobileHost[6].manetRouting.manetmanager.manetroutingprotocol 	lonelyCount 	0
scalar NetworkMultiRadioIPv4.mobileHost[6].manetRouting.manetmanager.manetroutingprotocol 	noNextHopCount 	0
scalar NetworkMultiRadioIPv4.mobileHost[7].udpApp[0] 	"Total send" 	0
scalar NetworkMultiRadioIPv4.mobileHost[7].udpApp[0] 	"Total received" 	0
scalar NetworkMultiRadioIPv4.mobileHost[7].udpApp[0] 	"Total deleted" 	0
scalar NetworkMultiRadioIPv4.mobileHost[7].udpApp[0] 	"Mean delay" 	0
scalar NetworkMultiRadioIPv4.mobileHost[7].udpApp[0] 	"Min delay" 	0
scalar NetworkMultiRadioIPv4.mobileHost[7].udpApp[0] 	"Max delay" 	0
scalar NetworkMultiRadioIPv4.mobileHost[7].udpApp[0] 	"Deviation delay" 	nan
scalar NetworkMultiRadioIPv4.mobileHost[7].udpApp[1] 	"Total send" 	0
scalar NetworkMultiRadioIPv4.mobileHost[7].udpApp[1] 	"Total received" 	0
scalar NetworkMultiRadioIPv4.mobileHost[7].udpApp[1] 	"Total deleted" 	0
scalar NetworkMultiRadioIPv4.mobileHost[7].udpApp[1] 	"Mean delay" 	0
scalar NetworkMultiRadioIPv4.mobileHost[7].udpApp[1] 	"Min delay" 	0
scalar NetworkMultiRadioIPv4.mobileHost[7].udpApp[1] 	"Max delay" 	0
scalar NetworkMultiRadioIPv4.mobileHost[7].udpApp[1] 	"Deviation delay" 	nan
scalar NetworkMultiRadioIPv4.mobileHost[7].udpApp[2] 	"Total send" 	0
scalar NetworkMultiRadioIPv4.mobileHost[7].udpApp[2] 	"Total received" 	0
scalar NetworkMultiRadioIPv4.mobileHost[7].udpApp[2] 	"Total deleted" 	0
scalar NetworkMultiRadioIPv4.mobileHost[7].udpApp[2] 	"Mean delay" 	0
scalar NetworkMultiRadioIPv4.mobileHost[7].udpApp[2] 	"Min delay" 	0
scalar NetworkMultiRadioIPv4.mobileHost[7].udpApp[2] 	"Max delay" 	0
scalar NetworkMultiRadioIPv4.mobileHost[7].udpApp[2] 	"Deviation delay" 	nan
scalar NetworkMultiRadioIPv4.mobileHost[7].pingApp 	"Pings sent" 	0
scalar NetworkMultiRadioIPv4.mobileHost[7].wlan[0].mgmt 	"packets received by queue" 	909
scalar NetworkMultiRadioIPv4.mobileHost[7].wlan[0].mgmt 	"packets dropped by queue" 	0
scalar NetworkMultiRadioIPv4.mobileHost[7].wlan[0].mac 	"Mean Frame Length" 	222
scalar NetworkMultiRadioIPv4.mobileHost[7].wlan[0].mac 	"Frame Length stddev" 	0
scalar NetworkMultiRadioIPv4.mobileHost[7].wlan[0].mac 	"Sent Throughput" 	0.077344796233277
scalar NetworkMultiRadioIPv4.mobileHost[7].wlan[0].mac 	"CW medio" 	87.860028860029
scalar NetworkMultiRadioIPv4.mobileHost[7].wlan[0].mac 	"CW max" 	1022
scalar NetworkMultiRadioIPv4.mobileHost[7].wlan[0].mac 	"CW dev" 	154.54401908404
scalar NetworkMultiRadioIPv4.mobileHost[7].wlan[0].mac 	"Mean service time" 	0.0069490456337164
scalar NetworkMultiRadioIPv4.mobileHost[7].wlan[0].mac 	numSent 	871
scalar NetworkMultiRadioIPv4.mobileHost[7].wlan[0].mac 	numSentWithoutRetry 	370
scalar NetworkMultiRadioIPv4.mobileHost[7].wlan[0].mac 	numReceived 	999
scalar NetworkMultiRadioIPv4.mobileHost[7].wlan[0].mac 	numSelfReceived 	909
scalar NetworkMultiRadioIPv4.mobileHost[7].wlan[0].mac 	numSentBroadcast 	-1
scalar NetworkMultiRadioIPv4.mobileHost[7].wlan[0].mac 	numReceivedBroadcast 	0
scalar NetworkMultiRadioIPv4.mobileHost[7].wlan[0].mac 	numReceivedOther 	11270
scalar NetworkMultiRadioIPv4.mobileHost[7].wlan[0].mac 	numCollision 	11216
scalar NetworkMultiRadioIPv4.mobileHost[7].wlan[0].mac 	numGivenUp 	38
scalar NetworkMultiRadioIPv4.mobileHost[7].wlan[0].mac 	numAckSend 	999
scalar NetworkMultiRadioIPv4.mobileHost[7].wlan[0].mac 	numRetry 	1380
scalar NetworkMultiRadioIPv4.mobileHost[7].wlan[1].mgmt 	"packets received by queue" 	1011
scalar NetworkMultiRadioIPv4.mobileHost[7].wlan[1].mgmt 	"packets dropped by queue" 	0
scalar NetworkMultiRadioIPv4.mobileHost[7].wlan[1].mac 	"Mean Frame Length" 	222
scalar NetworkMultiRadioIPv4.mobileHost[7].wlan[1].mac 	"Frame Length stddev" 	0
scalar NetworkMultiRadioIPv4.mobileHost[7].wlan[1].mac 	"Sent Throughput" 	0.085159195852713
scalar NetworkMultiRadioIPv4.mobileHost[7].wlan[1].mac 	"CW medio" 	91.982319965502
scalar NetworkMultiRadioIPv4.mobileHost[7].wlan[1].mac 	"CW max" 	1021
scalar NetworkMultiRadioIPv4.mobileHost[7].wlan[1].mac 	"CW dev" 	163.60511429433
scalar NetworkMultiRadioIPv4.mobileHost[7].wlan[1].mac 	"Mean service time" 	0.0082904959261794
scalar NetworkMultiRadioIPv4.mobileHost[7].wlan[1].mac 	numSent 	959
scalar NetworkMultiRadioIPv4.mobileHost[7].wlan[1].mac 	numSentWithoutRetry 	404
scalar NetworkMultiRadioIPv4.mobileHost[7].wlan[1].mac 	numReceived 	972
scalar NetworkMultiRadioIPv4.mobileHost[7].wlan[1].mac 	numSelfReceived 	1011
scalar NetworkMultiRadioIPv4.mobileHost[7].wlan[1].mac 	numSentBroadcast 	-1
scalar NetworkMultiRadioIPv4.mobileHost[7].wlan[1].mac 	numReceivedBroadcast 	0
scalar NetworkMultiRadioIPv4.mobileHost[7].wlan[1].mac 	numReceivedOther 	10921
scalar NetworkMultiRadioIPv4.mobileHost[7].wlan[1].mac 	numCollision 	10382
scalar NetworkMultiRadioIPv4.mobileHost[7].wlan[1].mac 	numGivenUp 	52
scalar NetworkMultiRadioIPv4.mobileHost[7].wlan[1].mac 	numAckSend 	972
scalar NetworkMultiRadioIPv4.mobileHost[7].wlan[1].mac 	numRetry 	1533
scalar NetworkMultiRadioIPv4.mobileHost[7].wlan[2].mgmt 	"packets received by queue" 	991
scalar NetworkMultiRadioIPv4.mobileHost[7].wlan[2].mgmt 	"packets dropped by queue" 	0
scalar NetworkMultiRadioIPv4.mobileHost[7].wlan[2].mac 	"Mean Frame Length" 	222
scalar NetworkMultiRadioIPv4.mobileHost[7].wlan[2].mac 	"Frame Length stddev" 	0
scalar NetworkMultiRadioIPv4.mobileHost[7].wlan[2].mac 	"Sent Throughput" 	0.084004795908933
scalar NetworkMultiRadioIPv4.mobileHost[7].wlan[2].mac 	"CW medio" 	92.803563474388
scalar NetworkMultiRadioIPv4.mobileHost[7].wlan[2].mac 	"CW max" 	1020
scalar NetworkMultiRadioIPv4.mobileHost[7].wlan[2].mac 	"CW dev" 	165.95181147132
scalar NetworkMultiRadioIPv4.mobileHost[7].wlan[2].mac 	"Mean service time" 	0.0083239109960708
scalar NetworkMultiRadioIPv4.mobileHost[7].wlan[2].mac 	numSent 	946
scalar NetworkMultiRadioIPv4.mobileHost[7].wlan[2].mac 	numSentWithoutRetry 	414
scalar NetworkMultiRadioIPv4.mobileHost[7].wlan[2].mac 	numReceived 	946
scalar NetworkMultiRadioIPv4.mobileHost[7].wlan[2].mac 	numSelfReceived 	991
scalar NetworkMultiRadioIPv4.mobileHost[7].wlan[2].mac 	numSentBroadcast 	-1
scalar NetworkMultiRadioIPv4.mobileHost[7].wlan[2].mac 	numReceivedBroadcast 	0
scalar NetworkMultiRadioIPv4.mobileHost[7].wlan[2].mac 	numReceivedOther 	11037
scalar NetworkMultiRadioIPv4.mobileHost[7].wlan[2].mac 	numCollision 	10327
scalar NetworkMultiRadioIPv4.mobileHost[7].wlan[2].mac 	numGivenUp 	44
scalar NetworkMultiRadioIPv4.mobileHost[7].wlan[2].mac 	numAckSend 	946
scalar NetworkMultiRadioIPv4.mobileHost[7].wlan[2].mac 	numRetry 	1474
scalar NetworkMultiRadioIPv4.mobileHost[7].manetRouting.manetmanager.manetroutingprotocol 	"Position X" 	150
scalar NetworkMultiRadioIPv4.mobileHost[7].manetRouting.manetmanager.manetroutingprotocol 	"Position Y" 	150
scalar NetworkMultiRadioIPv4.mobileHost[7].manetRouting.manetmanager.manetroutingprotocol 	lonelyCount 	0
scalar NetworkMultiRadioIPv4.mobileHost[7].manetRouting.manetmanager.manetroutingprotocol 	noNextHopCount 	0
scalar NetworkMultiRadioIPv4.mobileHost[8].udpApp[0] 	"Total send" 	928
scalar NetworkMultiRadioIPv4.mobileHost[8].udpApp[0] 	"Total received" 	0
scalar NetworkMultiRadioIPv4.mobileHost[8].udpApp[0] 	"Total deleted" 	0
scalar NetworkMultiRadioIPv4.mobileHost[8].udpApp[0] 	"Mean delay" 	0
scalar NetworkMultiRadioIPv4.mobileHost[8].udpApp[0] 	"Min delay" 	0
scalar NetworkMultiRadioIPv4.mobileHost[8].udpApp[0] 	"Max delay" 	0
scalar NetworkMultiRadioIPv4.mobileHost[8].udpApp[0] 	"Deviation delay" 	nan
scalar NetworkMultiRadioIPv4.mobileHost[8].udpApp[1] 	"Total send" 	928
scalar NetworkMultiRadioIPv4.mobileHost[8].udpApp[1] 	"Total received" 	0
scalar NetworkMultiRadioIPv4.mobileHost[8].udpApp[1] 	"Total deleted" 	0
scalar NetworkMultiRadioIPv4.mobileHost[8].udpApp[1] 	"Mean delay" 	0
scalar NetworkMultiRadioIPv4.mobileHost[8].udpApp[1] 	"Min delay" 	0
scalar NetworkMultiRadioIPv4.mobileHost[8].udpApp[1] 	"Max delay" 	0
scalar NetworkMultiRadioIPv4.mobileHost[8].udpApp[1] 	"Deviation delay" 	nan
scalar NetworkMultiRadioIPv4.mobileHost[8].udpApp[2] 	"Total send" 	927
scalar NetworkMultiRadioIPv4.mobileHost[8].udpApp[2] 	"Total received" 	0
scalar NetworkMultiRadioIPv4.mobileHost[8].udpApp[2] 	"Total deleted" 	0
scalar NetworkMultiRadioIPv4.mobileHost[8].udpApp[2] 	"Mean delay" 	0
scalar NetworkMultiRadioIPv4.mobileHost[8].udpApp[2] 	"Min delay" 	0
scalar NetworkMultiRadioIPv4.mobileHost[8].udpApp[2] 	"Max delay" 	0
scalar NetworkMultiRadioIPv4.mobileHost[8].udpApp[2] 	"Deviation delay" 	nan
scalar NetworkMultiRadioIPv4.mobileHost[8].pingApp 	"Pings sent" 	0
scalar NetworkMultiRadioIPv4.mobileHost[8].wlan[0].mgmt 	"packets received by queue" 	1933
scalar NetworkMultiRadioIPv4.mobileHost[8].wlan[0].mgmt 	"packets dropped by queue" 	0
scalar NetworkMultiRadioIPv4.mobileHost[8].wlan[0].mac 	"Mean Frame Length" 	222
scalar NetworkMultiRadioIPv4.mobileHost[8].wlan[0].mac 	"Frame Length stddev" 	0
scalar NetworkMultiRadioIPv4.mobileHost[8].wlan[0].mac 	"Sent Throughput" 	0.16223759209896
scalar NetworkMultiRadioIPv4.mobileHost[8].wlan[0].mac 	"CW medio" 	95.214025869038
scalar NetworkMultiRadioIPv4.mobileHost[8].wlan[0].mac 	"CW max" 	1021
scalar NetworkMultiRadioIPv4.mobileHost[8].wlan[0].mac 	"CW dev" 	175.16608558519
scalar NetworkMultiRadioIPv4.mobileHost[8].wlan[0].mac 	"Mean service time" 	0.042566564131662
scalar NetworkMultiRadioIPv4.mobileHost[8].wlan[0].mac 	numSent 	1827
scalar NetworkMultiRadioIPv4.mobileHost[8].wlan[0].mac 	numSentWithoutRetry 	745
scalar NetworkMultiRadioIPv4.mobileHost[8].wlan[0].mac 	numReceived 	979
scalar NetworkMultiRadioIPv4.mobileHost[8].wlan[0].mac 	numSelfReceived 	1933
scalar NetworkMultiRadioIPv4.mobileHost[8].wlan[0].mac 	numSentBroadcast 	-1
scalar NetworkMultiRadioIPv4.mobileHost[8].wlan[0].mac 	numReceivedBroadcast 	0
scalar NetworkMultiRadioIPv4.mobileHost[8].wlan[0].mac 	numReceivedOther 	14836
scalar NetworkMultiRadioIPv4.mobileHost[8].wlan[0].mac 	numCollision 	13517
scalar NetworkMultiRadioIPv4.mobileHost[8].wlan[0].mac 	numGivenUp 	105
scalar NetworkMultiRadioIPv4.mobileHost[8].wlan[0].mac 	numAckSend 	979
scalar NetworkMultiRadioIPv4.mobileHost[8].wlan[0].mac 	numRetry 	3148
scalar NetworkMultiRadioIPv4.mobileHost[8].wlan[1].mgmt 	"packets received by queue" 	1865
scalar NetworkMultiRadioIPv4.mobileHost[8].wlan[1].mgmt 	"packets dropped by queue" 	0
scalar NetworkMultiRadioIPv4.mobileHost[8].wlan[1].mac 	"Mean Frame Length" 	222
scalar NetworkMultiRadioIPv4.mobileHost[8].wlan[1].mac 	"Frame Length stddev" 	0
scalar NetworkMultiRadioIPv4.mobileHost[8].wlan[1].mac 	"Sent Throughput" 	0.15424559248818
scalar NetworkMultiRadioIPv4.mobileHost[8].wlan[1].mac 	"CW medio" 	94.976555839727
scalar NetworkMultiRadioIPv4.mobileHost[8].wlan[1].mac 	"CW max" 	1017
scalar NetworkMultiRadioIPv4.mobileHost[8].wlan[1].mac 	"CW dev" 	170.44519772542
scalar NetworkMultiRadioIPv4.mobileHost[8].wlan[1].mac 	"Mean service time" 	0.036759246842078
scalar NetworkMultiRadioIPv4.mobileHost[8].wlan[1].mac 	numSent 	1737
scalar NetworkMultiRadioIPv4.mobileHost[8].wlan[1].mac 	numSentWithoutRetry 	728
scalar NetworkMultiRadioIPv4.mobileHost[8].wlan[1].mac 	numReceived 	1003
scalar NetworkMultiRadioIPv4.mobileHost[8].wlan[1].mac 	numSelfReceived 	1857
scalar NetworkMultiRadioIPv4.mobileHost[8].wlan[1].mac 	numSentBroadcast 	-1
scalar NetworkMultiRadioIPv4.mobileHost[8].wlan[1].mac 	numReceivedBroadcast 	0
scalar NetworkMultiRadioIPv4.mobileHost[8].wlan[1].mac 	numReceivedOther 	14852
scalar NetworkMultiRadioIPv4.mobileHost[8].wlan[1].mac 	numCollision 	12735
scalar NetworkMultiRadioIPv4.mobileHost[8].wlan[1].mac 	numGivenUp 	118
scalar NetworkMultiRadioIPv4.mobileHost[8].wlan[1].mac 	numAckSend 	1003
scalar NetworkMultiRadioIPv4.mobileHost[8].wlan[1].mac 	numRetry 	3045
scalar NetworkMultiRadioIPv4.mobileHost[8].wlan[2].mgmt 	"packets received by queue" 	1925
scalar NetworkMultiRadioIPv4.mobileHost[8].wlan[2].mgmt 	"packets dropped by queue" 	0
scalar NetworkMultiRadioIPv4.mobileHost[8].wlan[2].mac 	"Mean Frame Length" 	222
scalar NetworkMultiRadioIPv4.mobileHost[8].wlan[2].mac 	"Frame Length stddev" 	0
scalar NetworkMultiRadioIPv4.mobileHost[8].wlan[2].mac 	"Sent Throughput" 	0.15948479223303
scalar NetworkMultiRadioIPv4.mobileHost[8].wlan[2].mac 	"CW medio" 	96.216676935716
scalar NetworkMultiRadioIPv4.mobileHost[8].wlan[2].mac 	"CW max" 	1022
scalar NetworkMultiRadioIPv4.mobileHost[8].wlan[2].mac 	"CW dev" 	174.36364898768
scalar NetworkMultiRadioIPv4.mobileHost[8].wlan[2].mac 	"Mean service time" 	0.059458484851247
scalar NetworkMultiRadioIPv4.mobileHost[8].wlan[2].mac 	numSent 	1796
scalar NetworkMultiRadioIPv4.mobileHost[8].wlan[2].mac 	numSentWithoutRetry 	760
scalar NetworkMultiRadioIPv4.mobileHost[8].wlan[2].mac 	numReceived 	958
scalar NetworkMultiRadioIPv4.mobileHost[8].wlan[2].mac 	numSelfReceived 	1924
scalar NetworkMultiRadioIPv4.mobileHost[8].wlan[2].mac 	numSentBroadcast 	-1
scalar NetworkMultiRadioIPv4.mobileHost[8].wlan[2].mac 	numReceivedBroadcast 	0
scalar NetworkMultiRadioIPv4.mobileHost[8].wlan[2].mac 	numReceivedOther 	14828
scalar NetworkMultiRadioIPv4.mobileHost[8].wlan[2].mac 	numCollision 	12531
scalar NetworkMultiRadioIPv4.mobileHost[8].wlan[2].mac 	numGivenUp 	126
scalar NetworkMultiRadioIPv4.mobileHost[8].wlan[2].mac 	numAckSend 	958
scalar NetworkMultiRadioIPv4.mobileHost[8].wlan[2].mac 	numRetry 	3111
scalar NetworkMultiRadioIPv4.mobileHost[8].manetRouting.manetmanager.manetroutingprotocol 	"Position X" 	300
scalar NetworkMultiRadioIPv4.mobileHost[8].manetRouting.manetmanager.manetroutingprotocol 	"Position Y" 	150
scalar NetworkMultiRadioIPv4.mobileHost[8].manetRouting.manetmanager.manetroutingprotocol 	lonelyCount 	0
scalar NetworkMultiRadioIPv4.mobileHost[8].manetRouting.manetmanager.manetroutingprotocol 	noNextHopCount 	0
scalar NetworkMultiRadioIPv4.mobileHost[9].udpApp[0] 	"Total send" 	927
scalar NetworkMultiRadioIPv4.mobileHost[9].udpApp[0] 	"Total received" 	686
scalar NetworkMultiRadioIPv4.mobileHost[9].udpApp[0] 	"Total deleted" 	603
scalar NetworkMultiRadioIPv4.mobileHost[9].udpApp[0] 	"Mean delay" 	0.093872228348853
scalar NetworkMultiRadioIPv4.mobileHost[9].udpApp[0] 	"Min delay" 	0.000618707106
scalar NetworkMultiRadioIPv4.mobileHost[9].udpApp[0] 	"Max delay" 	0.586787923557
scalar NetworkMultiRadioIPv4.mobileHost[9].udpApp[0] 	"Deviation delay" 	0.12780354754144
scalar NetworkMultiRadioIPv4.mobileHost[9].udpApp[0] 	"TTL28 NumOfBurstsReceived" 	1
scalar NetworkMultiRadioIPv4.mobileHost[9].udpApp[0] 	"TTL28 NumOfPacketsReceived" 	196
scalar NetworkMultiRadioIPv4.mobileHost[9].udpApp[0] 	"TTL29 NumOfBurstsReceived" 	1
scalar NetworkMultiRadioIPv4.mobileHost[9].udpApp[0] 	"TTL29 NumOfPacketsReceived" 	490
scalar NetworkMultiRadioIPv4.mobileHost[9].udpApp[1] 	"Total send" 	927
scalar NetworkMultiRadioIPv4.mobileHost[9].udpApp[1] 	"Total received" 	0
scalar NetworkMultiRadioIPv4.mobileHost[9].udpApp[1] 	"Total deleted" 	0
scalar NetworkMultiRadioIPv4.mobileHost[9].udpApp[1] 	"Mean delay" 	0
scalar NetworkMultiRadioIPv4.mobileHost[9].udpApp[1] 	"Min delay" 	0
scalar NetworkMultiRadioIPv4.mobileHost[9].udpApp[1] 	"Max delay" 	0
scalar NetworkMultiRadioIPv4.mobileHost[9].udpApp[1] 	"Deviation delay" 	nan
scalar NetworkMultiRadioIPv4.mobileHost[9].udpApp[2] 	"Total send" 	0
scalar NetworkMultiRadioIPv4.mobileHost[9].udpApp[2] 	"Total received" 	0
scalar NetworkMultiRadioIPv4.mobileHost[9].udpApp[2] 	"Total deleted" 	0
scalar NetworkMultiRadioIPv4.mobileHost[9].udpApp[2] 	"Mean delay" 	0
scalar NetworkMultiRadioIPv4.mobileHost[9].udpApp[2] 	"Min delay" 	0
scalar NetworkMultiRadioIPv4.mobileHost[9].udpApp[2] 	"Max delay" 	0
scalar NetworkMultiRadioIPv4.mobileHost[9].udpApp[2] 	"Deviation delay" 	nan
scalar NetworkMultiRadioIPv4.mobileHost[9].pingApp 	"Pings sent" 	0
scalar NetworkMultiRadioIPv4.mobileHost[9].wlan[0].mgmt 	"packets received by queue" 	1597
scalar NetworkMultiRadioIPv4.mobileHost[9].wlan[0].mgmt 	"packets dropped by queue" 	0
scalar NetworkMultiRadioIPv4.mobileHost[9].wlan[0].mac 	"Mean Frame Length" 	222
scalar NetworkMultiRadioIPv4.mobileHost[9].wlan[0].mac 	"Frame Length stddev" 	0
scalar NetworkMultiRadioIPv4.mobileHost[9].wlan[0].mac 	"Sent Throughput" 	0.13453199344824
scalar NetworkMultiRadioIPv4.mobileHost[9].wlan[0].mac 	"CW medio" 	91.112239715592
scalar NetworkMultiRadioIPv4.mobileHost[9].wlan[0].mac 	"CW max" 	1019
scalar NetworkMultiRadioIPv4.mobileHost[9].wlan[0].mac 	"CW dev" 	163.38962099047
scalar NetworkMultiRadioIPv4.mobileHost[9].wlan[0].mac 	"Mean service time" 	0.022790857240991
scalar NetworkMultiRadioIPv4.mobileHost[9].wlan[0].mac 	numSent 	1515
scalar NetworkMultiRadioIPv4.mobileHost[9].wlan[0].mac 	numSentWithoutRetry 	622
scalar NetworkMultiRadioIPv4.mobileHost[9].wlan[0].mac 	numReceived 	1377
scalar NetworkMultiRadioIPv4.mobileHost[9].wlan[0].mac 	numSelfReceived 	1597
scalar NetworkMultiRadioIPv4.mobileHost[9].wlan[0].mac 	numSentBroadcast 	-1
scalar NetworkMultiRadioIPv4.mobileHost[9].wlan[0].mac 	numReceivedBroadcast 	0
scalar NetworkMultiRadioIPv4.mobileHost[9].wlan[0].mac 	numReceivedOther 	17055
scalar NetworkMultiRadioIPv4.mobileHost[9].wlan[0].mac 	numCollision 	14283
scalar NetworkMultiRadioIPv4.mobileHost[9].wlan[0].mac 	numGivenUp 	82
scalar NetworkMultiRadioIPv4.mobileHost[9].wlan[0].mac 	numAckSend 	1377
scalar NetworkMultiRadioIPv4.mobileHost[9].wlan[0].mac 	numRetry 	2505
scalar NetworkMultiRadioIPv4.mobileHost[9].wlan[1].mgmt 	"packets received by queue" 	1511
scalar NetworkMultiRadioIPv4.mobileHost[9].wlan[1].mgmt 	"packets dropped by queue" 	0
scalar NetworkMultiRadioIPv4.mobileHost[9].wlan[1].mac 	"Mean Frame Length" 	222
scalar NetworkMultiRadioIPv4.mobileHost[9].wlan[1].mac 	"Frame Length stddev" 	0
scalar NetworkMultiRadioIPv4.mobileHost[9].wlan[1].mac 	"Sent Throughput" 	0.12778319377691
scalar NetworkMultiRadioIPv4.mobileHost[9].wlan[1].mac 	"CW medio" 	85.218796323747
scalar NetworkMultiRadioIPv4.mobileHost[9].wlan[1].mac 	"CW max" 	1019
scalar NetworkMultiRadioIPv4.mobileHost[9].wlan[1].mac 	"CW dev" 	159.65104158624
scalar NetworkMultiRadioIPv4.mobileHost[9].wlan[1].mac 	"Mean service time" 	0.01935244851054
scalar NetworkMultiRadioIPv4.mobileHost[9].wlan[1].mac 	numSent 	1439
scalar NetworkMultiRadioIPv4.mobileHost[9].wlan[1].mac 	numSentWithoutRetry 	657
scalar NetworkMultiRadioIPv4.mobileHost[9].wlan[1].mac 	numReceived 	1311
scalar NetworkMultiRadioIPv4.mobileHost[9].wlan[1].mac 	numSelfReceived 	1508
scalar NetworkMultiRadioIPv4.mobileHost[9].wlan[1].mac 	numSentBroadcast 	-1
scalar NetworkMultiRadioIPv4.mobileHost[9].wlan[1].mac 	numReceivedBroadcast 	0
scalar NetworkMultiRadioIPv4.mobileHost[9].wlan[1].mac 	numReceivedOther 	17270
scalar NetworkMultiRadioIPv4.mobileHost[9].wlan[1].mac 	numCollision 	13667
scalar NetworkMultiRadioIPv4.mobileHost[9].wlan[1].mac 	numGivenUp 	67
scalar NetworkMultiRadioIPv4.mobileHost[9].wlan[1].mac 	numAckSend 	1311
scalar NetworkMultiRadioIPv4.mobileHost[9].wlan[1].mac 	numRetry 	2090
scalar NetworkMultiRadioIPv4.mobileHost[9].wlan[2].mgmt 	"packets received by queue" 	1497
scalar NetworkMultiRadioIPv4.mobileHost[9].wlan[2].mgmt 	"packets dropped by queue" 	0
scalar NetworkMultiRadioIPv4.mobileHost[9].wlan[2].mac 	"Mean Frame Length" 	222
scalar NetworkMultiRadioIPv4.mobileHost[9].wlan[2].mac 	"Frame Length stddev" 	0
scalar NetworkMultiRadioIPv4.mobileHost[9].wlan[2].mac 	"Sent Throughput" 	0.12787199377258
scalar NetworkMultiRadioIPv4.mobileHost[9].wlan[2].mac 	"CW medio" 	81.26542840024
scalar NetworkMultiRadioIPv4.mobileHost[9].wlan[2].mac 	"CW max" 	1015
scalar NetworkMultiRadioIPv4.mobileHost[9].wlan[2].mac 	"CW dev" 	152.66115575943
scalar NetworkMultiRadioIPv4.mobileHost[9].wlan[2].mac 	"Mean service time" 	0.013712269658403
scalar NetworkMultiRadioIPv4.mobileHost[9].wlan[2].mac 	numSent 	1440
scalar NetworkMultiRadioIPv4.mobileHost[9].wlan[2].mac 	numSentWithoutRetry 	639
scalar NetworkMultiRadioIPv4.mobileHost[9].wlan[2].mac 	numReceived 	1352
scalar NetworkMultiRadioIPv4.mobileHost[9].wlan[2].mac 	numSelfReceived 	1494
scalar NetworkMultiRadioIPv4.mobileHost[9].wlan[2].mac 	numSentBroadcast 	-1
scalar NetworkMultiRadioIPv4.mobileHost[9].wlan[2].mac 	numReceivedBroadcast 	0
scalar NetworkMultiRadioIPv4.mobileHost[9].wlan[2].mac 	numReceivedOther 	17373
scalar NetworkMultiRadioIPv4.mobileHost[9].wlan[2].mac 	numCollision 	13589
scalar NetworkMultiRadioIPv4.mobileHost[9].wlan[2].mac 	numGivenUp 	52
scalar NetworkMultiRadioIPv4.mobileHost[9].wlan[2].mac 	numAckSend 	1352
scalar NetworkMultiRadioIPv4.mobileHost[9].wlan[2].mac 	numRetry 	2071
scalar NetworkMultiRadioIPv4.mobileHost[9].manetRouting.manetmanager.manetroutingprotocol 	"Position X" 	450
scalar NetworkMultiRadioIPv4.mobileHost[9].manetRouting.manetmanager.manetroutingprotocol 	"Position Y" 	150
scalar NetworkMultiRadioIPv4.mobileHost[9].manetRouting.manetmanager.manetroutingprotocol 	lonelyCount 	0
scalar NetworkMultiRadioIPv4.mobileHost[9].manetRouting.manetmanager.manetroutingprotocol 	noNextHopCount 	0
scalar NetworkMultiRadioIPv4.mobileHost[10].udpApp[0] 	"Total send" 	927
scalar NetworkMultiRadioIPv4.mobileHost[10].udpApp[0] 	"Total received" 	1246
scalar NetworkMultiRadioIPv4.mobileHost[10].udpApp[0] 	"Total deleted" 	407
scalar NetworkMultiRadioIPv4.mobileHost[10].udpApp[0] 	"Mean delay" 	0.015487577966646
scalar NetworkMultiRadioIPv4.mobileHost[10].udpApp[0] 	"Min delay" 	9.0707106e-05
scalar NetworkMultiRadioIPv4.mobileHost[10].udpApp[0] 	"Max delay" 	0.144863245281
scalar NetworkMultiRadioIPv4.mobileHost[10].udpApp[0] 	"Deviation delay" 	0.021411452238598
scalar NetworkMultiRadioIPv4.mobileHost[10].udpApp[0] 	"TTL30 NumOfBurstsReceived" 	1
scalar NetworkMultiRadioIPv4.mobileHost[10].udpApp[0] 	"TTL30 NumOfPacketsReceived" 	540
scalar NetworkMultiRadioIPv4.mobileHost[10].udpApp[0] 	"TTL31 NumOfBurstsReceived" 	1
scalar NetworkMultiRadioIPv4.mobileHost[10].udpApp[0] 	"TTL31 NumOfPacketsReceived" 	706
scalar NetworkMultiRadioIPv4.mobileHost[10].udpApp[1] 	"Total send" 	928
scalar NetworkMultiRadioIPv4.mobileHost[10].udpApp[1] 	"Total received" 	0
scalar NetworkMultiRadioIPv4.mobileHost[10].udpApp[1] 	"Total deleted" 	0
scalar NetworkMultiRadioIPv4.mobileHost[10].udpApp[1] 	"Mean delay" 	0
scalar NetworkMultiRadioIPv4.mobileHost[10].udpApp[1] 	"Min delay" 	0
scalar NetworkMultiRadioIPv4.mobileHost[10].udpApp[1] 	"Max delay" 	0
scalar NetworkMultiRadioIPv4.mobileHost[10].udpApp[1] 	"Deviation delay" 	nan
scalar NetworkMultiRadioIPv4.mobileHost[10].udpApp[2] 	"Total send" 	927
scalar NetworkMultiRadioIPv4.mobileHost[10].udpApp[2] 	"Total received" 	0
scalar NetworkMultiRadioIPv4.mobileHost[10].udpApp[2] 	"Total deleted" 	0
scalar NetworkMultiRadioIPv4.mobileHost[10].udpApp[2] 	"Mean delay" 	0
scalar NetworkMultiRadioIPv4.mobileHost[10].udpApp[2] 	"Min delay" 	0
scalar NetworkMultiRadioIPv4.mobileHost[10].udpApp[2] 	"Max delay" 	0
scalar NetworkMultiRadioIPv4.mobileHost[10].udpApp[2] 	"Deviation delay" 	nan
scalar NetworkMultiRadioIPv4.mobileHost[10].pingApp 	"Pings sent" 	0
scalar NetworkMultiRadioIPv4.mobileHost[10].wlan[0].mgmt 	"packets received by queue" 	1152
scalar NetworkMultiRadioIPv4.mobileHost[10].wlan[0].mgmt 	"packets dropped by queue" 	0
scalar NetworkMultiRadioIPv4.mobileHost[10].wlan[0].mac 	"Mean Frame Length" 	222
scalar NetworkMultiRadioIPv4.mobileHost[10].wlan[0].mac 	"Frame Length stddev" 	0
scalar NetworkMultiRadioIPv4.mobileHost[10].wlan[0].mac 	"Sent Throughput" 	0.090398395597562
scalar NetworkMultiRadioIPv4.mobileHost[10].wlan[0].mac 	"CW medio" 	121.01192457016
scalar NetworkMultiRadioIPv4.mobileHost[10].wlan[0].mac 	"CW max" 	1020
scalar NetworkMultiRadioIPv4.mobileHost[10].wlan[0].mac 	"CW dev" 	194.69270961025
scalar NetworkMultiRadioIPv4.mobileHost[10].wlan[0].mac 	"Mean service time" 	0.030729809974418
scalar NetworkMultiRadioIPv4.mobileHost[10].wlan[0].mac 	numSent 	1018
scalar NetworkMultiRadioIPv4.mobileHost[10].wlan[0].mac 	numSentWithoutRetry 	317
scalar NetworkMultiRadioIPv4.mobileHost[10].wlan[0].mac 	numReceived 	763
scalar NetworkMultiRadioIPv4.mobileHost[10].wlan[0].mac 	numSelfReceived 	1151
scalar NetworkMultiRadioIPv4.mobileHost[10].wlan[0].mac 	numSentBroadcast 	-1
scalar NetworkMultiRadioIPv4.mobileHost[10].wlan[0].mac 	numReceivedBroadcast 	0
scalar NetworkMultiRadioIPv4.mobileHost[10].wlan[0].mac 	numReceivedOther 	14982
scalar NetworkMultiRadioIPv4.mobileHost[10].wlan[0].mac 	numCollision 	12802
scalar NetworkMultiRadioIPv4.mobileHost[10].wlan[0].mac 	numGivenUp 	131
scalar NetworkMultiRadioIPv4.mobileHost[10].wlan[0].mac 	numAckSend 	763
scalar NetworkMultiRadioIPv4.mobileHost[10].wlan[0].mac 	numRetry 	2610
scalar NetworkMultiRadioIPv4.mobileHost[10].wlan[1].mgmt 	"packets received by queue" 	1123
scalar NetworkMultiRadioIPv4.mobileHost[10].wlan[1].mgmt 	"packets dropped by queue" 	0
scalar NetworkMultiRadioIPv4.mobileHost[10].wlan[1].mac 	"Mean Frame Length" 	222
scalar NetworkMultiRadioIPv4.mobileHost[10].wlan[1].mac 	"Frame Length stddev" 	0
scalar NetworkMultiRadioIPv4.mobileHost[10].wlan[1].mac 	"Sent Throughput" 	0.085958395813792
scalar NetworkMultiRadioIPv4.mobileHost[10].wlan[1].mac 	"CW medio" 	126.89096045198
scalar NetworkMultiRadioIPv4.mobileHost[10].wlan[1].mac 	"CW max" 	1023
scalar NetworkMultiRadioIPv4.mobileHost[10].wlan[1].mac 	"CW dev" 	203.45124231531
scalar NetworkMultiRadioIPv4.mobileHost[10].wlan[1].mac 	"Mean service time" 	0.036451418195221
scalar NetworkMultiRadioIPv4.mobileHost[10].wlan[1].mac 	numSent 	968
scalar NetworkMultiRadioIPv4.mobileHost[10].wlan[1].mac 	numSentWithoutRetry 	307
scalar NetworkMultiRadioIPv4.mobileHost[10].wlan[1].mac 	numReceived 	789
scalar NetworkMultiRadioIPv4.mobileHost[10].wlan[1].mac 	numSelfReceived 	1117
scalar NetworkMultiRadioIPv4.mobileHost[10].wlan[1].mac 	numSentBroadcast 	-1
scalar NetworkMultiRadioIPv4.mobileHost[10].wlan[1].mac 	numReceivedBroadcast 	0
scalar NetworkMultiRadioIPv4.mobileHost[10].wlan[1].mac 	numReceivedOther 	14689
scalar NetworkMultiRadioIPv4.mobileHost[10].wlan[1].mac 	numCollision 	11823
scalar NetworkMultiRadioIPv4.mobileHost[10].wlan[1].mac 	numGivenUp 	147
scalar NetworkMultiRadioIPv4.mobileHost[10].wlan[1].mac 	numAckSend 	789
scalar NetworkMultiRadioIPv4.mobileHost[10].wlan[1].mac 	numRetry 	2597
scalar NetworkMultiRadioIPv4.mobileHost[10].wlan[2].mgmt 	"packets received by queue" 	1151
scalar NetworkMultiRadioIPv4.mobileHost[10].wlan[2].mgmt 	"packets dropped by queue" 	0
scalar NetworkMultiRadioIPv4.mobileHost[10].wlan[2].mac 	"Mean Frame Length" 	222
scalar NetworkMultiRadioIPv4.mobileHost[10].wlan[2].mac 	"Frame Length stddev" 	0
scalar NetworkMultiRadioIPv4.mobileHost[10].wlan[2].mac 	"Sent Throughput" 	0.090575995588913
scalar NetworkMultiRadioIPv4.mobileHost[10].wlan[2].mac 	"CW medio" 	119.61693430657
scalar NetworkMultiRadioIPv4.mobileHost[10].wlan[2].mac 	"CW max" 	1021
scalar NetworkMultiRadioIPv4.mobileHost[10].wlan[2].mac 	"CW dev" 	198.14170373719
scalar NetworkMultiRadioIPv4.mobileHost[10].wlan[2].mac 	"Mean service time" 	0.021988026250122
scalar NetworkMultiRadioIPv4.mobileHost[10].wlan[2].mac 	numSent 	1020
scalar NetworkMultiRadioIPv4.mobileHost[10].wlan[2].mac 	numSentWithoutRetry 	347
scalar NetworkMultiRadioIPv4.mobileHost[10].wlan[2].mac 	numReceived 	779
scalar NetworkMultiRadioIPv4.mobileHost[10].wlan[2].mac 	numSelfReceived 	1151
scalar NetworkMultiRadioIPv4.mobileHost[10].wlan[2].mac 	numSentBroadcast 	-1
scalar NetworkMultiRadioIPv4.mobileHost[10].wlan[2].mac 	numReceivedBroadcast 	0
scalar NetworkMultiRadioIPv4.mobileHost[10].wlan[2].mac 	numReceivedOther 	14897
scalar NetworkMultiRadioIPv4.mobileHost[10].wlan[2].mac 	numCollision 	12073
scalar NetworkMultiRadioIPv4.mobileHost[10].wlan[2].mac 	numGivenUp 	130
scalar NetworkMultiRadioIPv4.mobileHost[10].wlan[2].mac 	numAckSend 	779
scalar NetworkMultiRadioIPv4.mobileHost[10].wlan[2].mac 	numRetry 	2470
scalar NetworkMultiRadioIPv4.mobileHost[10].manetRouting.manetmanager.manetroutingprotocol 	"Position X" 	600
scalar NetworkMultiRadioIPv4.mobileHost[10].manetRouting.manetmanager.manetroutingprotocol 	"Position Y" 	150
scalar NetworkMultiRadioIPv4.mobileHost[10].manetRouting.manetmanager.manetroutingprotocol 	lonelyCount 	0
scalar NetworkMultiRadioIPv4.mobileHost[10].manetRouting.manetmanager.manetroutingprotocol 	noNextHopCount 	0
scalar NetworkMultiRadioIPv4.mobileHost[11].udpApp[0] 	"Total send" 	0
scalar NetworkMultiRadioIPv4.mobileHost[11].udpApp[0] 	"Total received" 	691
scalar NetworkMultiRadioIPv4.mobileHost[11].udpApp[0] 	"Total deleted" 	765
scalar NetworkMultiRadioIPv4.mobileHost[11].udpApp[0] 	"Mean delay" 	0.064120740829187
scalar NetworkMultiRadioIPv4.mobileHost[11].udpApp[0] 	"Min delay" 	0.000393207106
scalar NetworkMultiRadioIPv4.mobileHost[11].udpApp[0] 	"Max delay" 	0.373306389785
scalar NetworkMultiRadioIPv4.mobileHost[11].udpApp[0] 	"Deviation delay" 	0.054609759168205
scalar NetworkMultiRadioIPv4.mobileHost[11].udpApp[0] 	"TTL28 NumOfBurstsReceived" 	1
scalar NetworkMultiRadioIPv4.mobileHost[11].udpApp[0] 	"TTL28 NumOfPacketsReceived" 	349
scalar NetworkMultiRadioIPv4.mobileHost[11].udpApp[0] 	"TTL30 NumOfBurstsReceived" 	1
scalar NetworkMultiRadioIPv4.mobileHost[11].udpApp[0] 	"TTL30 NumOfPacketsReceived" 	342
scalar NetworkMultiRadioIPv4.mobileHost[11].udpApp[1] 	"Total send" 	0
scalar NetworkMultiRadioIPv4.mobileHost[11].udpApp[1] 	"Total received" 	0
scalar NetworkMultiRadioIPv4.mobileHost[11].udpApp[1] 	"Total deleted" 	0
scalar NetworkMultiRadioIPv4.mobileHost[11].udpApp[1] 	"Mean delay" 	0
scalar NetworkMultiRadioIPv4.mobileHost[11].udpApp[1] 	"Min delay" 	0
scalar NetworkMultiRadioIPv4.mobileHost[11].udpApp[1] 	"Max delay" 	0
scalar NetworkMultiRadioIPv4.mobileHost[11].udpApp[1] 	"Deviation delay" 	nan
scalar NetworkMultiRadioIPv4.mobileHost[11].udpApp[2] 	"Total send" 	928
scalar NetworkMultiRadioIPv4.mobileHost[11].udpApp[2] 	"Total received" 	0
scalar NetworkMultiRadioIPv4.mobileHost[11].udpApp[2] 	"Total deleted" 	0
[...]
scalar NetworkMultiRadioIPv4.mobileHost[33].udpApp[2] 	"Total received" 	0
scalar NetworkMultiRadioIPv4.mobileHost[33].udpApp[2] 	"Total deleted" 	0
scalar NetworkMultiRadioIPv4.mobileHost[33].udpApp[2] 	"Mean delay" 	0
scalar NetworkMultiRadioIPv4.mobileHost[33].udpApp[2] 	"Min delay" 	0
scalar NetworkMultiRadioIPv4.mobileHost[33].udpApp[2] 	"Max delay" 	0
scalar NetworkMultiRadioIPv4.mobileHost[33].udpApp[2] 	"Deviation delay" 	nan
scalar NetworkMultiRadioIPv4.mobileHost[33].pingApp 	"Pings sent" 	0
scalar NetworkMultiRadioIPv4.mobileHost[33].wlan[0].mgmt 	"packets received by queue" 	605
scalar NetworkMultiRadioIPv4.mobileHost[33].wlan[0].mgmt 	"packets dropped by queue" 	0
scalar NetworkMultiRadioIPv4.mobileHost[33].wlan[0].mac 	"Mean Frame Length" 	222
scalar NetworkMultiRadioIPv4.mobileHost[33].wlan[0].mac 	"Frame Length stddev" 	0
scalar NetworkMultiRadioIPv4.mobileHost[33].wlan[0].mac 	"Sent Throughput" 	0.048395997643096
scalar NetworkMultiRadioIPv4.mobileHost[33].wlan[0].mac 	"CW medio" 	115.06927710843
scalar NetworkMultiRadioIPv4.mobileHost[33].wlan[0].mac 	"CW max" 	1001
scalar NetworkMultiRadioIPv4.mobileHost[33].wlan[0].mac 	"CW dev" 	184.11185738462
scalar NetworkMultiRadioIPv4.mobileHost[33].wlan[0].mac 	"Mean service time" 	0.0093988209710037
scalar NetworkMultiRadioIPv4.mobileHost[33].wlan[0].mac 	numSent 	545
scalar NetworkMultiRadioIPv4.mobileHost[33].wlan[0].mac 	numSentWithoutRetry 	189
scalar NetworkMultiRadioIPv4.mobileHost[33].wlan[0].mac 	numReceived 	518
scalar NetworkMultiRadioIPv4.mobileHost[33].wlan[0].mac 	numSelfReceived 	605
scalar NetworkMultiRadioIPv4.mobileHost[33].wlan[0].mac 	numSentBroadcast 	-1
scalar NetworkMultiRadioIPv4.mobileHost[33].wlan[0].mac 	numReceivedBroadcast 	0
scalar NetworkMultiRadioIPv4.mobileHost[33].wlan[0].mac 	numReceivedOther 	11656
scalar NetworkMultiRadioIPv4.mobileHost[33].wlan[0].mac 	numCollision 	10618
scalar NetworkMultiRadioIPv4.mobileHost[33].wlan[0].mac 	numGivenUp 	59
scalar NetworkMultiRadioIPv4.mobileHost[33].wlan[0].mac 	numAckSend 	518
scalar NetworkMultiRadioIPv4.mobileHost[33].wlan[0].mac 	numRetry 	1226
scalar NetworkMultiRadioIPv4.mobileHost[33].wlan[1].mgmt 	"packets received by queue" 	627
scalar NetworkMultiRadioIPv4.mobileHost[33].wlan[1].mgmt 	"packets dropped by queue" 	0
scalar NetworkMultiRadioIPv4.mobileHost[33].wlan[1].mac 	"Mean Frame Length" 	222
scalar NetworkMultiRadioIPv4.mobileHost[33].wlan[1].mac 	"Frame Length stddev" 	0
scalar NetworkMultiRadioIPv4.mobileHost[33].wlan[1].mac 	"Sent Throughput" 	0.051237597504709
scalar NetworkMultiRadioIPv4.mobileHost[33].wlan[1].mac 	"CW medio" 	105.13349514563
scalar NetworkMultiRadioIPv4.mobileHost[33].wlan[1].mac 	"CW max" 	1021
scalar NetworkMultiRadioIPv4.mobileHost[33].wlan[1].mac 	"CW dev" 	174.18463818361
scalar NetworkMultiRadioIPv4.mobileHost[33].wlan[1].mac 	"Mean service time" 	0.0072805001698544
scalar NetworkMultiRadioIPv4.mobileHost[33].wlan[1].mac 	numSent 	577
scalar NetworkMultiRadioIPv4.mobileHost[33].wlan[1].mac 	numSentWithoutRetry 	202
scalar NetworkMultiRadioIPv4.mobileHost[33].wlan[1].mac 	numReceived 	467
scalar NetworkMultiRadioIPv4.mobileHost[33].wlan[1].mac 	numSelfReceived 	627
scalar NetworkMultiRadioIPv4.mobileHost[33].wlan[1].mac 	numSentBroadcast 	-1
scalar NetworkMultiRadioIPv4.mobileHost[33].wlan[1].mac 	numReceivedBroadcast 	0
scalar NetworkMultiRadioIPv4.mobileHost[33].wlan[1].mac 	numReceivedOther 	11561
scalar NetworkMultiRadioIPv4.mobileHost[33].wlan[1].mac 	numCollision 	9692
scalar NetworkMultiRadioIPv4.mobileHost[33].wlan[1].mac 	numGivenUp 	50
scalar NetworkMultiRadioIPv4.mobileHost[33].wlan[1].mac 	numAckSend 	467
scalar NetworkMultiRadioIPv4.mobileHost[33].wlan[1].mac 	numRetry 	1211
scalar NetworkMultiRadioIPv4.mobileHost[33].wlan[2].mgmt 	"packets received by queue" 	563
scalar NetworkMultiRadioIPv4.mobileHost[33].wlan[2].mgmt 	"packets dropped by queue" 	0
scalar NetworkMultiRadioIPv4.mobileHost[33].wlan[2].mac 	"Mean Frame Length" 	222
scalar NetworkMultiRadioIPv4.mobileHost[33].wlan[2].mac 	"Frame Length stddev" 	0
scalar NetworkMultiRadioIPv4.mobileHost[33].wlan[2].mac 	"Sent Throughput" 	0.044666397824729
scalar NetworkMultiRadioIPv4.mobileHost[33].wlan[2].mac 	"CW medio" 	118.59276315789
scalar NetworkMultiRadioIPv4.mobileHost[33].wlan[2].mac 	"CW max" 	1010
scalar NetworkMultiRadioIPv4.mobileHost[33].wlan[2].mac 	"CW dev" 	189.77341209899
scalar NetworkMultiRadioIPv4.mobileHost[33].wlan[2].mac 	"Mean service time" 	0.0075299789717376
scalar NetworkMultiRadioIPv4.mobileHost[33].wlan[2].mac 	numSent 	503
scalar NetworkMultiRadioIPv4.mobileHost[33].wlan[2].mac 	numSentWithoutRetry 	184
scalar NetworkMultiRadioIPv4.mobileHost[33].wlan[2].mac 	numReceived 	435
scalar NetworkMultiRadioIPv4.mobileHost[33].wlan[2].mac 	numSelfReceived 	563
scalar NetworkMultiRadioIPv4.mobileHost[33].wlan[2].mac 	numSentBroadcast 	-1
scalar NetworkMultiRadioIPv4.mobileHost[33].wlan[2].mac 	numReceivedBroadcast 	0
scalar NetworkMultiRadioIPv4.mobileHost[33].wlan[2].mac 	numReceivedOther 	11315
scalar NetworkMultiRadioIPv4.mobileHost[33].wlan[2].mac 	numCollision 	9522
scalar NetworkMultiRadioIPv4.mobileHost[33].wlan[2].mac 	numGivenUp 	60
scalar NetworkMultiRadioIPv4.mobileHost[33].wlan[2].mac 	numAckSend 	435
scalar NetworkMultiRadioIPv4.mobileHost[33].wlan[2].mac 	numRetry 	1150
scalar NetworkMultiRadioIPv4.mobileHost[33].manetRouting.manetmanager.manetroutingprotocol 	"Position X" 	450
scalar NetworkMultiRadioIPv4.mobileHost[33].manetRouting.manetmanager.manetroutingprotocol 	"Position Y" 	750
scalar NetworkMultiRadioIPv4.mobileHost[33].manetRouting.manetmanager.manetroutingprotocol 	lonelyCount 	0
scalar NetworkMultiRadioIPv4.mobileHost[33].manetRouting.manetmanager.manetroutingprotocol 	noNextHopCount 	0
scalar NetworkMultiRadioIPv4.mobileHost[34].udpApp[0] 	"Total send" 	929
scalar NetworkMultiRadioIPv4.mobileHost[34].udpApp[0] 	"Total received" 	421
scalar NetworkMultiRadioIPv4.mobileHost[34].udpApp[0] 	"Total deleted" 	954
scalar NetworkMultiRadioIPv4.mobileHost[34].udpApp[0] 	"Mean delay" 	0.18552879267852
scalar NetworkMultiRadioIPv4.mobileHost[34].udpApp[0] 	"Min delay" 	0.003831151897
scalar NetworkMultiRadioIPv4.mobileHost[34].udpApp[0] 	"Max delay" 	0.784553732955
scalar NetworkMultiRadioIPv4.mobileHost[34].udpApp[0] 	"Deviation delay" 	0.16550633727422
scalar NetworkMultiRadioIPv4.mobileHost[34].udpApp[0] 	"TTL28 NumOfBurstsReceived" 	2
scalar NetworkMultiRadioIPv4.mobileHost[34].udpApp[0] 	"TTL28 NumOfPacketsReceived" 	421
scalar NetworkMultiRadioIPv4.mobileHost[34].udpApp[1] 	"Total send" 	0
scalar NetworkMultiRadioIPv4.mobileHost[34].udpApp[1] 	"Total received" 	0
scalar NetworkMultiRadioIPv4.mobileHost[34].udpApp[1] 	"Total deleted" 	0
scalar NetworkMultiRadioIPv4.mobileHost[34].udpApp[1] 	"Mean delay" 	0
scalar NetworkMultiRadioIPv4.mobileHost[34].udpApp[1] 	"Min delay" 	0
scalar NetworkMultiRadioIPv4.mobileHost[34].udpApp[1] 	"Max delay" 	0
scalar NetworkMultiRadioIPv4.mobileHost[34].udpApp[1] 	"Deviation delay" 	nan
scalar NetworkMultiRadioIPv4.mobileHost[34].udpApp[2] 	"Total send" 	0
scalar NetworkMultiRadioIPv4.mobileHost[34].udpApp[2] 	"Total received" 	0
scalar NetworkMultiRadioIPv4.mobileHost[34].udpApp[2] 	"Total deleted" 	0
scalar NetworkMultiRadioIPv4.mobileHost[34].udpApp[2] 	"Mean delay" 	0
scalar NetworkMultiRadioIPv4.mobileHost[34].udpApp[2] 	"Min delay" 	0
scalar NetworkMultiRadioIPv4.mobileHost[34].udpApp[2] 	"Max delay" 	0
scalar NetworkMultiRadioIPv4.mobileHost[34].udpApp[2] 	"Deviation delay" 	nan
scalar NetworkMultiRadioIPv4.mobileHost[34].pingApp 	"Pings sent" 	0
scalar NetworkMultiRadioIPv4.mobileHost[34].wlan[0].mgmt 	"packets received by queue" 	322
scalar NetworkMultiRadioIPv4.mobileHost[34].wlan[0].mgmt 	"packets dropped by queue" 	0
scalar NetworkMultiRadioIPv4.mobileHost[34].wlan[0].mac 	"Mean Frame Length" 	222
scalar NetworkMultiRadioIPv4.mobileHost[34].wlan[0].mac 	"Frame Length stddev" 	0
scalar NetworkMultiRadioIPv4.mobileHost[34].wlan[0].mac 	"Sent Throughput" 	0.028149598629103
scalar NetworkMultiRadioIPv4.mobileHost[34].wlan[0].mac 	"CW medio" 	71.210122699387
scalar NetworkMultiRadioIPv4.mobileHost[34].wlan[0].mac 	"CW max" 	1015
scalar NetworkMultiRadioIPv4.mobileHost[34].wlan[0].mac 	"CW dev" 	131.51054470633
scalar NetworkMultiRadioIPv4.mobileHost[34].wlan[0].mac 	"Mean service time" 	0.0040210358379621
scalar NetworkMultiRadioIPv4.mobileHost[34].wlan[0].mac 	numSent 	317
scalar NetworkMultiRadioIPv4.mobileHost[34].wlan[0].mac 	numSentWithoutRetry 	112
scalar NetworkMultiRadioIPv4.mobileHost[34].wlan[0].mac 	numReceived 	462
scalar NetworkMultiRadioIPv4.mobileHost[34].wlan[0].mac 	numSelfReceived 	322
scalar NetworkMultiRadioIPv4.mobileHost[34].wlan[0].mac 	numSentBroadcast 	-1
scalar NetworkMultiRadioIPv4.mobileHost[34].wlan[0].mac 	numReceivedBroadcast 	0
scalar NetworkMultiRadioIPv4.mobileHost[34].wlan[0].mac 	numReceivedOther 	8826
scalar NetworkMultiRadioIPv4.mobileHost[34].wlan[0].mac 	numCollision 	9432
scalar NetworkMultiRadioIPv4.mobileHost[34].wlan[0].mac 	numGivenUp 	5
scalar NetworkMultiRadioIPv4.mobileHost[34].wlan[0].mac 	numAckSend 	462
scalar NetworkMultiRadioIPv4.mobileHost[34].wlan[0].mac 	numRetry 	457
scalar NetworkMultiRadioIPv4.mobileHost[34].wlan[1].mgmt 	"packets received by queue" 	305
scalar NetworkMultiRadioIPv4.mobileHost[34].wlan[1].mgmt 	"packets dropped by queue" 	0
scalar NetworkMultiRadioIPv4.mobileHost[34].wlan[1].mac 	"Mean Frame Length" 	222
scalar NetworkMultiRadioIPv4.mobileHost[34].wlan[1].mac 	"Frame Length stddev" 	0
scalar NetworkMultiRadioIPv4.mobileHost[34].wlan[1].mac 	"Sent Throughput" 	0.02530799876749
scalar NetworkMultiRadioIPv4.mobileHost[34].wlan[1].mac 	"CW medio" 	109.76246334311
scalar NetworkMultiRadioIPv4.mobileHost[34].wlan[1].mac 	"CW max" 	1018
scalar NetworkMultiRadioIPv4.mobileHost[34].wlan[1].mac 	"CW dev" 	187.73119283221
scalar NetworkMultiRadioIPv4.mobileHost[34].wlan[1].mac 	"Mean service time" 	0.0051835348741649
scalar NetworkMultiRadioIPv4.mobileHost[34].wlan[1].mac 	numSent 	285
scalar NetworkMultiRadioIPv4.mobileHost[34].wlan[1].mac 	numSentWithoutRetry 	104
scalar NetworkMultiRadioIPv4.mobileHost[34].wlan[1].mac 	numReceived 	469
scalar NetworkMultiRadioIPv4.mobileHost[34].wlan[1].mac 	numSelfReceived 	305
scalar NetworkMultiRadioIPv4.mobileHost[34].wlan[1].mac 	numSentBroadcast 	-1
scalar NetworkMultiRadioIPv4.mobileHost[34].wlan[1].mac 	numReceivedBroadcast 	0
scalar NetworkMultiRadioIPv4.mobileHost[34].wlan[1].mac 	numReceivedOther 	8929
scalar NetworkMultiRadioIPv4.mobileHost[34].wlan[1].mac 	numCollision 	8793
scalar NetworkMultiRadioIPv4.mobileHost[34].wlan[1].mac 	numGivenUp 	19
scalar NetworkMultiRadioIPv4.mobileHost[34].wlan[1].mac 	numAckSend 	469
scalar NetworkMultiRadioIPv4.mobileHost[34].wlan[1].mac 	numRetry 	527
scalar NetworkMultiRadioIPv4.mobileHost[34].wlan[2].mgmt 	"packets received by queue" 	268
scalar NetworkMultiRadioIPv4.mobileHost[34].wlan[2].mgmt 	"packets dropped by queue" 	0
scalar NetworkMultiRadioIPv4.mobileHost[34].wlan[2].mac 	"Mean Frame Length" 	222
scalar NetworkMultiRadioIPv4.mobileHost[34].wlan[2].mac 	"Frame Length stddev" 	0
scalar NetworkMultiRadioIPv4.mobileHost[34].wlan[2].mac 	"Sent Throughput" 	0.023443198858307
scalar NetworkMultiRadioIPv4.mobileHost[34].wlan[2].mac 	"CW medio" 	83.892405063291
scalar NetworkMultiRadioIPv4.mobileHost[34].wlan[2].mac 	"CW max" 	995
scalar NetworkMultiRadioIPv4.mobileHost[34].wlan[2].mac 	"CW dev" 	144.01171194339
scalar NetworkMultiRadioIPv4.mobileHost[34].wlan[2].mac 	"Mean service time" 	0.0040821365657727
scalar NetworkMultiRadioIPv4.mobileHost[34].wlan[2].mac 	numSent 	264
scalar NetworkMultiRadioIPv4.mobileHost[34].wlan[2].mac 	numSentWithoutRetry 	111
scalar NetworkMultiRadioIPv4.mobileHost[34].wlan[2].mac 	numReceived 	444
scalar NetworkMultiRadioIPv4.mobileHost[34].wlan[2].mac 	numSelfReceived 	268
scalar NetworkMultiRadioIPv4.mobileHost[34].wlan[2].mac 	numSentBroadcast 	-1
scalar NetworkMultiRadioIPv4.mobileHost[34].wlan[2].mac 	numReceivedBroadcast 	0
scalar NetworkMultiRadioIPv4.mobileHost[34].wlan[2].mac 	numReceivedOther 	8540
scalar NetworkMultiRadioIPv4.mobileHost[34].wlan[2].mac 	numCollision 	8512
scalar NetworkMultiRadioIPv4.mobileHost[34].wlan[2].mac 	numGivenUp 	4
scalar NetworkMultiRadioIPv4.mobileHost[34].wlan[2].mac 	numAckSend 	444
scalar NetworkMultiRadioIPv4.mobileHost[34].wlan[2].mac 	numRetry 	342
scalar NetworkMultiRadioIPv4.mobileHost[34].manetRouting.manetmanager.manetroutingprotocol 	"Position X" 	600
scalar NetworkMultiRadioIPv4.mobileHost[34].manetRouting.manetmanager.manetroutingprotocol 	"Position Y" 	750
scalar NetworkMultiRadioIPv4.mobileHost[34].manetRouting.manetmanager.manetroutingprotocol 	lonelyCount 	0
scalar NetworkMultiRadioIPv4.mobileHost[34].manetRouting.manetmanager.manetroutingprotocol 	noNextHopCount 	0
scalar NetworkMultiRadioIPv4.mobileHost[35].udpApp[0] 	"Total send" 	927
scalar NetworkMultiRadioIPv4.mobileHost[35].udpApp[0] 	"Total received" 	757
scalar NetworkMultiRadioIPv4.mobileHost[35].udpApp[0] 	"Total deleted" 	104
scalar NetworkMultiRadioIPv4.mobileHost[35].udpApp[0] 	"Mean delay" 	0.010778783766808
scalar NetworkMultiRadioIPv4.mobileHost[35].udpApp[0] 	"Min delay" 	0.000181
scalar NetworkMultiRadioIPv4.mobileHost[35].udpApp[0] 	"Max delay" 	0.06645992186
scalar NetworkMultiRadioIPv4.mobileHost[35].udpApp[0] 	"Deviation delay" 	0.010760957762266
scalar NetworkMultiRadioIPv4.mobileHost[35].udpApp[0] 	"TTL30 NumOfBurstsReceived" 	1
scalar NetworkMultiRadioIPv4.mobileHost[35].udpApp[0] 	"TTL30 NumOfPacketsReceived" 	757
scalar NetworkMultiRadioIPv4.mobileHost[35].udpApp[1] 	"Total send" 	0
scalar NetworkMultiRadioIPv4.mobileHost[35].udpApp[1] 	"Total received" 	0
scalar NetworkMultiRadioIPv4.mobileHost[35].udpApp[1] 	"Total deleted" 	0
scalar NetworkMultiRadioIPv4.mobileHost[35].udpApp[1] 	"Mean delay" 	0
scalar NetworkMultiRadioIPv4.mobileHost[35].udpApp[1] 	"Min delay" 	0
scalar NetworkMultiRadioIPv4.mobileHost[35].udpApp[1] 	"Max delay" 	0
scalar NetworkMultiRadioIPv4.mobileHost[35].udpApp[1] 	"Deviation delay" 	nan
scalar NetworkMultiRadioIPv4.mobileHost[35].udpApp[2] 	"Total send" 	925
scalar NetworkMultiRadioIPv4.mobileHost[35].udpApp[2] 	"Total received" 	0
scalar NetworkMultiRadioIPv4.mobileHost[35].udpApp[2] 	"Total deleted" 	0
scalar NetworkMultiRadioIPv4.mobileHost[35].udpApp[2] 	"Mean delay" 	0
scalar NetworkMultiRadioIPv4.mobileHost[35].udpApp[2] 	"Min delay" 	0
scalar NetworkMultiRadioIPv4.mobileHost[35].udpApp[2] 	"Max delay" 	0
scalar NetworkMultiRadioIPv4.mobileHost[35].udpApp[2] 	"Deviation delay" 	nan
scalar NetworkMultiRadioIPv4.mobileHost[35].pingApp 	"Pings sent" 	0
scalar NetworkMultiRadioIPv4.mobileHost[35].wlan[0].mgmt 	"packets received by queue" 	641
scalar NetworkMultiRadioIPv4.mobileHost[35].wlan[0].mgmt 	"packets dropped by queue" 	0
scalar NetworkMultiRadioIPv4.mobileHost[35].wlan[0].mac 	"Mean Frame Length" 	222
scalar NetworkMultiRadioIPv4.mobileHost[35].wlan[0].mac 	"Frame Length stddev" 	0
scalar NetworkMultiRadioIPv4.mobileHost[35].wlan[0].mac 	"Sent Throughput" 	0.045199197798781
scalar NetworkMultiRadioIPv4.mobileHost[35].wlan[0].mac 	"CW medio" 	156.30991931656
scalar NetworkMultiRadioIPv4.mobileHost[35].wlan[0].mac 	"CW max" 	1020
scalar NetworkMultiRadioIPv4.mobileHost[35].wlan[0].mac 	"CW dev" 	222.49785963383
scalar NetworkMultiRadioIPv4.mobileHost[35].wlan[0].mac 	"Mean service time" 	0.0078751693967171
scalar NetworkMultiRadioIPv4.mobileHost[35].wlan[0].mac 	numSent 	509
scalar NetworkMultiRadioIPv4.mobileHost[35].wlan[0].mac 	numSentWithoutRetry 	138
scalar NetworkMultiRadioIPv4.mobileHost[35].wlan[0].mac 	numReceived 	280
scalar NetworkMultiRadioIPv4.mobileHost[35].wlan[0].mac 	numSelfReceived 	641
scalar NetworkMultiRadioIPv4.mobileHost[35].wlan[0].mac 	numSentBroadcast 	-1
scalar NetworkMultiRadioIPv4.mobileHost[35].wlan[0].mac 	numReceivedBroadcast 	0
scalar NetworkMultiRadioIPv4.mobileHost[35].wlan[0].mac 	numReceivedOther 	3774
scalar NetworkMultiRadioIPv4.mobileHost[35].wlan[0].mac 	numCollision 	4707
scalar NetworkMultiRadioIPv4.mobileHost[35].wlan[0].mac 	numGivenUp 	132
scalar NetworkMultiRadioIPv4.mobileHost[35].wlan[0].mac 	numAckSend 	280
scalar NetworkMultiRadioIPv4.mobileHost[35].wlan[0].mac 	numRetry 	1800
scalar NetworkMultiRadioIPv4.mobileHost[35].wlan[1].mgmt 	"packets received by queue" 	606
scalar NetworkMultiRadioIPv4.mobileHost[35].wlan[1].mgmt 	"packets dropped by queue" 	0
scalar NetworkMultiRadioIPv4.mobileHost[35].wlan[1].mac 	"Mean Frame Length" 	222
scalar NetworkMultiRadioIPv4.mobileHost[35].wlan[1].mac 	"Frame Length stddev" 	0
scalar NetworkMultiRadioIPv4.mobileHost[35].wlan[1].mac 	"Sent Throughput" 	0.042357597937168
scalar NetworkMultiRadioIPv4.mobileHost[35].wlan[1].mac 	"CW medio" 	162.5815963396
scalar NetworkMultiRadioIPv4.mobileHost[35].wlan[1].mac 	"CW max" 	1022
scalar NetworkMultiRadioIPv4.mobileHost[35].wlan[1].mac 	"CW dev" 	227.14742015955
scalar NetworkMultiRadioIPv4.mobileHost[35].wlan[1].mac 	"Mean service time" 	0.0075555263155073
scalar NetworkMultiRadioIPv4.mobileHost[35].wlan[1].mac 	numSent 	477
scalar NetworkMultiRadioIPv4.mobileHost[35].wlan[1].mac 	numSentWithoutRetry 	134
scalar NetworkMultiRadioIPv4.mobileHost[35].wlan[1].mac 	numReceived 	297
scalar NetworkMultiRadioIPv4.mobileHost[35].wlan[1].mac 	numSelfReceived 	606
scalar NetworkMultiRadioIPv4.mobileHost[35].wlan[1].mac 	numSentBroadcast 	-1
scalar NetworkMultiRadioIPv4.mobileHost[35].wlan[1].mac 	numReceivedBroadcast 	0
scalar NetworkMultiRadioIPv4.mobileHost[35].wlan[1].mac 	numReceivedOther 	3949
scalar NetworkMultiRadioIPv4.mobileHost[35].wlan[1].mac 	numCollision 	4471
scalar NetworkMultiRadioIPv4.mobileHost[35].wlan[1].mac 	numGivenUp 	129
scalar NetworkMultiRadioIPv4.mobileHost[35].wlan[1].mac 	numAckSend 	297
scalar NetworkMultiRadioIPv4.mobileHost[35].wlan[1].mac 	numRetry 	1697
scalar NetworkMultiRadioIPv4.mobileHost[35].wlan[2].mgmt 	"packets received by queue" 	552
scalar NetworkMultiRadioIPv4.mobileHost[35].wlan[2].mgmt 	"packets dropped by queue" 	0
scalar NetworkMultiRadioIPv4.mobileHost[35].wlan[2].mac 	"Mean Frame Length" 	222
scalar NetworkMultiRadioIPv4.mobileHost[35].wlan[2].mac 	"Frame Length stddev" 	0
scalar NetworkMultiRadioIPv4.mobileHost[35].wlan[2].mac 	"Sent Throughput" 	0.03845039812745
scalar NetworkMultiRadioIPv4.mobileHost[35].wlan[2].mac 	"CW medio" 	156.84322264562
scalar NetworkMultiRadioIPv4.mobileHost[35].wlan[2].mac 	"CW max" 	1022
scalar NetworkMultiRadioIPv4.mobileHost[35].wlan[2].mac 	"CW dev" 	219.12664194797
scalar NetworkMultiRadioIPv4.mobileHost[35].wlan[2].mac 	"Mean service time" 	0.0065247134134642
scalar NetworkMultiRadioIPv4.mobileHost[35].wlan[2].mac 	numSent 	433
scalar NetworkMultiRadioIPv4.mobileHost[35].wlan[2].mac 	numSentWithoutRetry 	100
scalar NetworkMultiRadioIPv4.mobileHost[35].wlan[2].mac 	numReceived 	284
scalar NetworkMultiRadioIPv4.mobileHost[35].wlan[2].mac 	numSelfReceived 	552
scalar NetworkMultiRadioIPv4.mobileHost[35].wlan[2].mac 	numSentBroadcast 	-1
scalar NetworkMultiRadioIPv4.mobileHost[35].wlan[2].mac 	numReceivedBroadcast 	0
scalar NetworkMultiRadioIPv4.mobileHost[35].wlan[2].mac 	numReceivedOther 	3747
scalar NetworkMultiRadioIPv4.mobileHost[35].wlan[2].mac 	numCollision 	4222
scalar NetworkMultiRadioIPv4.mobileHost[35].wlan[2].mac 	numGivenUp 	118
scalar NetworkMultiRadioIPv4.mobileHost[35].wlan[2].mac 	numAckSend 	284
scalar NetworkMultiRadioIPv4.mobileHost[35].wlan[2].mac 	numRetry 	1612
scalar NetworkMultiRadioIPv4.mobileHost[35].manetRouting.manetmanager.manetroutingprotocol 	"Position X" 	750
scalar NetworkMultiRadioIPv4.mobileHost[35].manetRouting.manetmanager.manetroutingprotocol 	"Position Y" 	750
scalar NetworkMultiRadioIPv4.mobileHost[35].manetRouting.manetmanager.manetroutingprotocol 	lonelyCount 	0
scalar NetworkMultiRadioIPv4.mobileHost[35].manetRouting.manetmanager.manetroutingprotocol 	noNextHopCount 	0
