version 2
run random36-1-20100509-12:06:09-3912
attr configname random36
attr datetime 20100509-12:06:09
attr experiment random36
attr inifile omnetpp.ini
attr iterationvars "$numudpapp=3, $sp=40, $msgfreq=0.02"
attr iterationvars2 "$numudpapp=3, $sp=40, $msgfreq=0.02, $repetition=1"
attr measurement "$numudpapp=3, $sp=40, $msgfreq=0.02"
attr msgfreq 0.02
attr network NetworkMultiRadioIPv4
attr numudpapp 3
attr processid 3912
attr repetition 1
attr replication #1
attr resultdir results
attr runnumber 1
attr seedset 1
attr sp 40

scalar . 	msgfreq 	0.02
scalar . 	numudpapp 	3
scalar . 	sp 	40
scalar NetworkMultiRadioIPv4.mobileHost[0].udpApp[0] 	"Total send" 	926
scalar NetworkMultiRadioIPv4.mobileHost[0].udpApp[0] 	"Total received" 	1492
scalar NetworkMultiRadioIPv4.mobileHost[0].udpApp[0] 	"Total deleted" 	194
scalar NetworkMultiRadioIPv4.mobileHost[0].udpApp[0] 	"Mean delay" 	0.01056954078077
scalar NetworkMultiRadioIPv4.mobileHost[0].udpApp[0] 	"Min delay" 	9.05e-05
scalar NetworkMultiRadioIPv4.mobileHost[0].udpApp[0] 	"Max delay" 	0.151960670717
scalar NetworkMultiRadioIPv4.mobileHost[0].udpApp[0] 	"Deviation delay" 	0.016155541089684
scalar NetworkMultiRadioIPv4.mobileHost[0].udpApp[0] 	"TTL28 NumOfBurstsReceived" 	1
scalar NetworkMultiRadioIPv4.mobileHost[0].udpApp[0] 	"TTL28 NumOfPacketsReceived" 	587
scalar NetworkMultiRadioIPv4.mobileHost[0].udpApp[0] 	"TTL31 NumOfBurstsReceived" 	1
scalar NetworkMultiRadioIPv4.mobileHost[0].udpApp[0] 	"TTL31 NumOfPacketsReceived" 	905
scalar NetworkMultiRadioIPv4.mobileHost[0].udpApp[1] 	"Total send" 	0
scalar NetworkMultiRadioIPv4.mobileHost[0].udpApp[1] 	"Total received" 	0
scalar NetworkMultiRadioIPv4.mobileHost[0].udpApp[1] 	"Total deleted" 	0
scalar NetworkMultiRadioIPv4.mobileHost[0].udpApp[1] 	"Mean delay" 	0
scalar NetworkMultiRadioIPv4.mobileHost[0].udpApp[1] 	"Min delay" 	0
scalar NetworkMultiRadioIPv4.mobileHost[0].udpApp[1] 	"Max delay" 	0
scalar NetworkMultiRadioIPv4.mobileHost[0].udpApp[1] 	"Deviation delay" 	nan
scalar NetworkMultiRadioIPv4.mobileHost[0].udpApp[2] 	"Total send" 	927
scalar NetworkMultiRadioIPv4.mobileHost[0].udpApp[2] 	"Total received" 	0
scalar NetworkMultiRadioIPv4.mobileHost[0].udpApp[2] 	"Total deleted" 	0
scalar NetworkMultiRadioIPv4.mobileHost[0].udpApp[2] 	"Mean delay" 	0
scalar NetworkMultiRadioIPv4.mobileHost[0].udpApp[2] 	"Min delay" 	0
scalar NetworkMultiRadioIPv4.mobileHost[0].udpApp[2] 	"Max delay" 	0
scalar NetworkMultiRadioIPv4.mobileHost[0].udpApp[2] 	"Deviation delay" 	nan
scalar NetworkMultiRadioIPv4.mobileHost[0].pingApp 	"Pings sent" 	0
scalar NetworkMultiRadioIPv4.mobileHost[0].wlan[0].mgmt 	"packets received by queue" 	608
scalar NetworkMultiRadioIPv4.mobileHost[0].wlan[0].mgmt 	"packets dropped by queue" 	0
scalar NetworkMultiRadioIPv4.mobileHost[0].wlan[0].mac 	"Mean Frame Length" 	222
scalar NetworkMultiRadioIPv4.mobileHost[0].wlan[0].mac 	"Frame Length stddev" 	0
scalar NetworkMultiRadioIPv4.mobileHost[0].wlan[0].mac 	"Sent Throughput" 	0.051326398803479
scalar NetworkMultiRadioIPv4.mobileHost[0].wlan[0].mac 	"CW medio" 	117.62543859649
scalar NetworkMultiRadioIPv4.mobileHost[0].wlan[0].mac 	"CW max" 	1015
scalar NetworkMultiRadioIPv4.mobileHost[0].wlan[0].mac 	"CW dev" 	176.71819767411
scalar NetworkMultiRadioIPv4.mobileHost[0].wlan[0].mac 	"Mean service time" 	0.0034302436516471
scalar NetworkMultiRadioIPv4.mobileHost[0].wlan[0].mac 	numSent 	578
scalar NetworkMultiRadioIPv4.mobileHost[0].wlan[0].mac 	numSentWithoutRetry 	229
scalar NetworkMultiRadioIPv4.mobileHost[0].wlan[0].mac 	numReceived 	546
scalar NetworkMultiRadioIPv4.mobileHost[0].wlan[0].mac 	numSelfReceived 	608
scalar NetworkMultiRadioIPv4.mobileHost[0].wlan[0].mac 	numSentBroadcast 	-1
scalar NetworkMultiRadioIPv4.mobileHost[0].wlan[0].mac 	numReceivedBroadcast 	0
scalar NetworkMultiRadioIPv4.mobileHost[0].wlan[0].mac 	numReceivedOther 	4678
scalar NetworkMultiRadioIPv4.mobileHost[0].wlan[0].mac 	numCollision 	3443
scalar NetworkMultiRadioIPv4.mobileHost[0].wlan[0].mac 	numGivenUp 	30
scalar NetworkMultiRadioIPv4.mobileHost[0].wlan[0].mac 	numAckSend 	546
scalar NetworkMultiRadioIPv4.mobileHost[0].wlan[0].mac 	numRetry 	987
scalar NetworkMultiRadioIPv4.mobileHost[0].wlan[1].mgmt 	"packets received by queue" 	589
scalar NetworkMultiRadioIPv4.mobileHost[0].wlan[1].mgmt 	"packets dropped by queue" 	0
scalar NetworkMultiRadioIPv4.mobileHost[0].wlan[1].mac 	"Mean Frame Length" 	222
scalar NetworkMultiRadioIPv4.mobileHost[0].wlan[1].mac 	"Frame Length stddev" 	0
scalar NetworkMultiRadioIPv4.mobileHost[0].wlan[1].mac 	"Sent Throughput" 	0.048751198863512
scalar NetworkMultiRadioIPv4.mobileHost[0].wlan[1].mac 	"CW medio" 	131.76345984113
scalar NetworkMultiRadioIPv4.mobileHost[0].wlan[1].mac 	"CW max" 	995
scalar NetworkMultiRadioIPv4.mobileHost[0].wlan[1].mac 	"CW dev" 	200.57371028447
scalar NetworkMultiRadioIPv4.mobileHost[0].wlan[1].mac 	"Mean service time" 	0.0034031749191075
scalar NetworkMultiRadioIPv4.mobileHost[0].wlan[1].mac 	numSent 	549
scalar NetworkMultiRadioIPv4.mobileHost[0].wlan[1].mac 	numSentWithoutRetry 	241
scalar NetworkMultiRadioIPv4.mobileHost[0].wlan[1].mac 	numReceived 	544
scalar NetworkMultiRadioIPv4.mobileHost[0].wlan[1].mac 	numSelfReceived 	589
scalar NetworkMultiRadioIPv4.mobileHost[0].wlan[1].mac 	numSentBroadcast 	-1
scalar NetworkMultiRadioIPv4.mobileHost[0].wlan[1].mac 	numReceivedBroadcast 	0
scalar NetworkMultiRadioIPv4.mobileHost[0].wlan[1].mac 	numReceivedOther 	4402
scalar NetworkMultiRadioIPv4.mobileHost[0].wlan[1].mac 	numCollision 	3153
scalar NetworkMultiRadioIPv4.mobileHost[0].wlan[1].mac 	numGivenUp 	40
scalar NetworkMultiRadioIPv4.mobileHost[0].wlan[1].mac 	numAckSend 	544
scalar NetworkMultiRadioIPv4.mobileHost[0].wlan[1].mac 	numRetry 	983
scalar NetworkMultiRadioIPv4.mobileHost[0].wlan[2].mgmt 	"packets received by queue" 	626
scalar NetworkMultiRadioIPv4.mobileHost[0].wlan[2].mgmt 	"packets dropped by queue" 	0
scalar NetworkMultiRadioIPv4.mobileHost[0].wlan[2].mac 	"Mean Frame Length" 	222
scalar NetworkMultiRadioIPv4.mobileHost[0].wlan[2].mac 	"Frame Length stddev" 	0
scalar NetworkMultiRadioIPv4.mobileHost[0].wlan[2].mac 	"Sent Throughput" 	0.053368798755867
scalar NetworkMultiRadioIPv4.mobileHost[0].wlan[2].mac 	"CW medio" 	113.82388840453
scalar NetworkMultiRadioIPv4.mobileHost[0].wlan[2].mac 	"CW max" 	998
scalar NetworkMultiRadioIPv4.mobileHost[0].wlan[2].mac 	"CW dev" 	181.81746889199
scalar NetworkMultiRadioIPv4.mobileHost[0].wlan[2].mac 	"Mean service time" 	0.0030321123134143
scalar NetworkMultiRadioIPv4.mobileHost[0].wlan[2].mac 	numSent 	601
scalar NetworkMultiRadioIPv4.mobileHost[0].wlan[2].mac 	numSentWithoutRetry 	236
scalar NetworkMultiRadioIPv4.mobileHost[0].wlan[2].mac 	numReceived 	596
scalar NetworkMultiRadioIPv4.mobileHost[0].wlan[2].mac 	numSelfReceived 	626
scalar NetworkMultiRadioIPv4.mobileHost[0].wlan[2].mac 	numSentBroadcast 	-1
scalar NetworkMultiRadioIPv4.mobileHost[0].wlan[2].mac 	numReceivedBroadcast 	0
scalar NetworkMultiRadioIPv4.mobileHost[0].wlan[2].mac 	numReceivedOther 	4379
scalar NetworkMultiRadioIPv4.mobileHost[0].wlan[2].mac 	numCollision 	3269
scalar NetworkMultiRadioIPv4.mobileHost[0].wlan[2].mac 	numGivenUp 	25
scalar NetworkMultiRadioIPv4.mobileHost[0].wlan[2].mac 	numAckSend 	596
scalar NetworkMultiRadioIPv4.mobileHost[0].wlan[2].mac 	numRetry 	990
scalar NetworkMultiRadioIPv4.mobileHost[0].manetRouting.manetmanager.manetroutingprotocol 	"Position X" 	0
scalar NetworkMultiRadioIPv4.mobileHost[0].manetRouting.manetmanager.manetroutingprotocol 	"Position Y" 	0
scalar NetworkMultiRadioIPv4.mobileHost[0].manetRouting.manetmanager.manetroutingprotocol 	lonelyCount 	0
scalar NetworkMultiRadioIPv4.mobileHost[0].manetRouting.manetmanager.manetroutingprotocol 	noNextHopCount 	0
scalar NetworkMultiRadioIPv4.mobileHost[1].udpApp[0] 	"Total send" 	929
scalar NetworkMultiRadioIPv4.mobileHost[1].udpApp[0] 	"Total received" 	795
scalar NetworkMultiRadioIPv4.mobileHost[1].udpApp[0] 	"Total deleted" 	65
scalar NetworkMultiRadioIPv4.mobileHost[1].udpApp[0] 	"Mean delay" 	0.0072380803018302
scalar NetworkMultiRadioIPv4.mobileHost[1].udpApp[0] 	"Min delay" 	0.000181207106
scalar NetworkMultiRadioIPv4.mobileHost[1].udpApp[0] 	"Max delay" 	0.061168538797
scalar NetworkMultiRadioIPv4.mobileHost[1].udpApp[0] 	"Deviation delay" 	0.00871225628397
scalar NetworkMultiRadioIPv4.mobileHost[1].udpApp[0] 	"TTL30 NumOfBurstsReceived" 	1
scalar NetworkMultiRadioIPv4.mobileHost[1].udpApp[0] 	"TTL30 NumOfPacketsReceived" 	795
scalar NetworkMultiRadioIPv4.mobileHost[1].udpApp[1] 	"Total send" 	928
scalar NetworkMultiRadioIPv4.mobileHost[1].udpApp[1] 	"Total received" 	0
scalar NetworkMultiRadioIPv4.mobileHost[1].udpApp[1] 	"Total deleted" 	0
scalar NetworkMultiRadioIPv4.mobileHost[1].udpApp[1] 	"Mean delay" 	0
scalar NetworkMultiRadioIPv4.mobileHost[1].udpApp[1] 	"Min delay" 	0
scalar NetworkMultiRadioIPv4.mobileHost[1].udpApp[1] 	"Max delay" 	0
scalar NetworkMultiRadioIPv4.mobileHost[1].udpApp[1] 	"Deviation delay" 	nan
scalar NetworkMultiRadioIPv4.mobileHost[1].udpApp[2] 	"Total send" 	0
scalar NetworkMultiRadioIPv4.mobileHost[1].udpApp[2] 	"Total received" 	0
scalar NetworkMultiRadioIPv4.mobileHost[1].udpApp[2] 	"Total deleted" 	0
scalar NetworkMultiRadioIPv4.mobileHost[1].udpApp[2] 	"Mean delay" 	0
scalar NetworkMultiRadioIPv4.mobileHost[1].udpApp[2] 	"Min delay" 	0
scalar NetworkMultiRadioIPv4.mobileHost[1].udpApp[2] 	"Max delay" 	0
scalar NetworkMultiRadioIPv4.mobileHost[1].udpApp[2] 	"Deviation delay" 	nan
scalar NetworkMultiRadioIPv4.mobileHost[1].pingApp 	"Pings sent" 	0
scalar NetworkMultiRadioIPv4.mobileHost[1].wlan[0].mgmt 	"packets received by queue" 	962
scalar NetworkMultiRadioIPv4.mobileHost[1].wlan[0].mgmt 	"packets dropped by queue" 	0
scalar NetworkMultiRadioIPv4.mobileHost[1].wlan[0].mac 	"Mean Frame Length" 	222
scalar NetworkMultiRadioIPv4.mobileHost[1].wlan[0].mac 	"Frame Length stddev" 	0
scalar NetworkMultiRadioIPv4.mobileHost[1].wlan[0].mac 	"Sent Throughput" 	0.079653598143115
scalar NetworkMultiRadioIPv4.mobileHost[1].wlan[0].mac 	"CW medio" 	117.84260948905
scalar NetworkMultiRadioIPv4.mobileHost[1].wlan[0].mac 	"CW max" 	1021
scalar NetworkMultiRadioIPv4.mobileHost[1].wlan[0].mac 	"CW dev" 	184.225618105
scalar NetworkMultiRadioIPv4.mobileHost[1].wlan[0].mac 	"Mean service time" 	0.0046726058171382
scalar NetworkMultiRadioIPv4.mobileHost[1].wlan[0].mac 	numSent 	897
scalar NetworkMultiRadioIPv4.mobileHost[1].wlan[0].mac 	numSentWithoutRetry 	359
scalar NetworkMultiRadioIPv4.mobileHost[1].wlan[0].mac 	numReceived 	594
scalar NetworkMultiRadioIPv4.mobileHost[1].wlan[0].mac 	numSelfReceived 	962
scalar NetworkMultiRadioIPv4.mobileHost[1].wlan[0].mac 	numSentBroadcast 	-1
scalar NetworkMultiRadioIPv4.mobileHost[1].wlan[0].mac 	numReceivedBroadcast 	0
scalar NetworkMultiRadioIPv4.mobileHost[1].wlan[0].mac 	numReceivedOther 	6716
scalar NetworkMultiRadioIPv4.mobileHost[1].wlan[0].mac 	numCollision 	4010
scalar NetworkMultiRadioIPv4.mobileHost[1].wlan[0].mac 	numGivenUp 	65
scalar NetworkMultiRadioIPv4.mobileHost[1].wlan[0].mac 	numAckSend 	594
scalar NetworkMultiRadioIPv4.mobileHost[1].wlan[0].mac 	numRetry 	1757
scalar NetworkMultiRadioIPv4.mobileHost[1].wlan[1].mgmt 	"packets received by queue" 	913
scalar NetworkMultiRadioIPv4.mobileHost[1].wlan[1].mgmt 	"packets dropped by queue" 	0
scalar NetworkMultiRadioIPv4.mobileHost[1].wlan[1].mac 	"Mean Frame Length" 	222
scalar NetworkMultiRadioIPv4.mobileHost[1].wlan[1].mac 	"Frame Length stddev" 	0
scalar NetworkMultiRadioIPv4.mobileHost[1].wlan[1].mac 	"Sent Throughput" 	0.07539119824248
scalar NetworkMultiRadioIPv4.mobileHost[1].wlan[1].mac 	"CW medio" 	119.05863874346
scalar NetworkMultiRadioIPv4.mobileHost[1].wlan[1].mac 	"CW max" 	1009
scalar NetworkMultiRadioIPv4.mobileHost[1].wlan[1].mac 	"CW dev" 	189.41512558989
scalar NetworkMultiRadioIPv4.mobileHost[1].wlan[1].mac 	"Mean service time" 	0.0040283010305783
scalar NetworkMultiRadioIPv4.mobileHost[1].wlan[1].mac 	numSent 	849
scalar NetworkMultiRadioIPv4.mobileHost[1].wlan[1].mac 	numSentWithoutRetry 	345
scalar NetworkMultiRadioIPv4.mobileHost[1].wlan[1].mac 	numReceived 	558
scalar NetworkMultiRadioIPv4.mobileHost[1].wlan[1].mac 	numSelfReceived 	913
scalar NetworkMultiRadioIPv4.mobileHost[1].wlan[1].mac 	numSentBroadcast 	-1
scalar NetworkMultiRadioIPv4.mobileHost[1].wlan[1].mac 	numReceivedBroadcast 	0
scalar NetworkMultiRadioIPv4.mobileHost[1].wlan[1].mac 	numReceivedOther 	6648
scalar NetworkMultiRadioIPv4.mobileHost[1].wlan[1].mac 	numCollision 	3717
scalar NetworkMultiRadioIPv4.mobileHost[1].wlan[1].mac 	numGivenUp 	64
scalar NetworkMultiRadioIPv4.mobileHost[1].wlan[1].mac 	numAckSend 	558
scalar NetworkMultiRadioIPv4.mobileHost[1].wlan[1].mac 	numRetry 	1531
scalar NetworkMultiRadioIPv4.mobileHost[1].wlan[2].mgmt 	"packets received by queue" 	884
scalar NetworkMultiRadioIPv4.mobileHost[1].wlan[2].mgmt 	"packets dropped by queue" 	0
scalar NetworkMultiRadioIPv4.mobileHost[1].wlan[2].mac 	"Mean Frame Length" 	222
scalar NetworkMultiRadioIPv4.mobileHost[1].wlan[2].mac 	"Frame Length stddev" 	0
scalar NetworkMultiRadioIPv4.mobileHost[1].wlan[2].mac 	"Sent Throughput" 	0.073171198294233
scalar NetworkMultiRadioIPv4.mobileHost[1].wlan[2].mac 	"CW medio" 	118.72847011145
scalar NetworkMultiRadioIPv4.mobileHost[1].wlan[2].mac 	"CW max" 	1019
scalar NetworkMultiRadioIPv4.mobileHost[1].wlan[2].mac 	"CW dev" 	189.1780530685
scalar NetworkMultiRadioIPv4.mobileHost[1].wlan[2].mac 	"Mean service time" 	0.0046426414167767
scalar NetworkMultiRadioIPv4.mobileHost[1].wlan[2].mac 	numSent 	824
scalar NetworkMultiRadioIPv4.mobileHost[1].wlan[2].mac 	numSentWithoutRetry 	309
scalar NetworkMultiRadioIPv4.mobileHost[1].wlan[2].mac 	numReceived 	610
scalar NetworkMultiRadioIPv4.mobileHost[1].wlan[2].mac 	numSelfReceived 	884
scalar NetworkMultiRadioIPv4.mobileHost[1].wlan[2].mac 	numSentBroadcast 	-1
scalar NetworkMultiRadioIPv4.mobileHost[1].wlan[2].mac 	numReceivedBroadcast 	0
scalar NetworkMultiRadioIPv4.mobileHost[1].wlan[2].mac 	numReceivedOther 	6777
scalar NetworkMultiRadioIPv4.mobileHost[1].wlan[2].mac 	numCollision 	3796
scalar NetworkMultiRadioIPv4.mobileHost[1].wlan[2].mac 	numGivenUp 	60
scalar NetworkMultiRadioIPv4.mobileHost[1].wlan[2].mac 	numAckSend 	610
scalar NetworkMultiRadioIPv4.mobileHost[1].wlan[2].mac 	numRetry 	1598
scalar NetworkMultiRadioIPv4.mobileHost[1].manetRouting.manetmanager.manetroutingprotocol 	"Position X" 	150
scalar NetworkMultiRadioIPv4.mobileHost[1].manetRouting.manetmanager.manetroutingprotocol 	"Position Y" 	0
scalar NetworkMultiRadioIPv4.mobileHost[1].manetRouting.manetmanager.manetroutingprotocol 	lonelyCount 	0
scalar NetworkMultiRadioIPv4.mobileHost[1].manetRouting.manetmanager.manetroutingprotocol 	noNextHopCount 	0
scalar NetworkMultiRadioIPv4.mobileHost[2].udpApp[0] 	"Total send" 	0
scalar NetworkMultiRadioIPv4.mobileHost[2].udpApp[0] 	"Total received" 	2481
scalar NetworkMultiRadioIPv4.mobileHost[2].udpApp[0] 	"Total deleted" 	82
scalar NetworkMultiRadioIPv4.mobileHost[2].udpApp[0] 	"Mean delay" 	0.0051840004333474
scalar NetworkMultiRadioIPv4.mobileHost[2].udpApp[0] 	"Min delay" 	9.0707106e-05
scalar NetworkMultiRadioIPv4.mobileHost[2].udpApp[0] 	"Max delay" 	0.043297925501
scalar NetworkMultiRadioIPv4.mobileHost[2].udpApp[0] 	"Deviation delay" 	0.0068021928832667
scalar NetworkMultiRadioIPv4.mobileHost[2].udpApp[0] 	"TTL30 NumOfBurstsReceived" 	1
scalar NetworkMultiRadioIPv4.mobileHost[2].udpApp[0] 	"TTL30 NumOfPacketsReceived" 	865
scalar NetworkMultiRadioIPv4.mobileHost[2].udpApp[0] 	"TTL31 NumOfBurstsReceived" 	2
scalar NetworkMultiRadioIPv4.mobileHost[2].udpApp[0] 	"TTL31 NumOfPacketsReceived" 	1616
scalar NetworkMultiRadioIPv4.mobileHost[2].udpApp[1] 	"Total send" 	0
scalar NetworkMultiRadioIPv4.mobileHost[2].udpApp[1] 	"Total received" 	0
scalar NetworkMultiRadioIPv4.mobileHost[2].udpApp[1] 	"Total deleted" 	0
scalar NetworkMultiRadioIPv4.mobileHost[2].udpApp[1] 	"Mean delay" 	0
scalar NetworkMultiRadioIPv4.mobileHost[2].udpApp[1] 	"Min delay" 	0
scalar NetworkMultiRadioIPv4.mobileHost[2].udpApp[1] 	"Max delay" 	0
scalar NetworkMultiRadioIPv4.mobileHost[2].udpApp[1] 	"Deviation delay" 	nan
scalar NetworkMultiRadioIPv4.mobileHost[2].udpApp[2] 	"Total send" 	0
scalar NetworkMultiRadioIPv4.mobileHost[2].udpApp[2] 	"Total received" 	0
scalar NetworkMultiRadioIPv4.mobileHost[2].udpApp[2] 	"Total deleted" 	0
scalar NetworkMultiRadioIPv4.mobileHost[2].udpApp[2] 	"Mean delay" 	0
scalar NetworkMultiRadioIPv4.mobileHost[2].udpApp[2] 	"Min delay" 	0
scalar NetworkMultiRadioIPv4.mobileHost[2].udpApp[2] 	"Max delay" 	0
scalar NetworkMultiRadioIPv4.mobileHost[2].udpApp[2] 	"Deviation delay" 	nan
scalar NetworkMultiRadioIPv4.mobileHost[2].pingApp 	"Pings sent" 	0
scalar NetworkMultiRadioIPv4.mobileHost[2].wlan[0].mgmt 	"packets received by queue" 	0
scalar NetworkMultiRadioIPv4.mobileHost[2].wlan[0].mgmt 	"packets dropped by queue" 	0
scalar NetworkMultiRadioIPv4.mobileHost[2].wlan[0].mac 	"Mean Frame Length" 	0
scalar NetworkMultiRadioIPv4.mobileHost[2].wlan[0].mac 	"Frame Length stddev" 	nan
scalar NetworkMultiRadioIPv4.mobileHost[2].wlan[0].mac 	"Sent Throughput" 	0
scalar NetworkMultiRadioIPv4.mobileHost[2].wlan[0].mac 	"CW medio" 	0
scalar NetworkMultiRadioIPv4.mobileHost[2].wlan[0].mac 	"CW max" 	0
scalar NetworkMultiRadioIPv4.mobileHost[2].wlan[0].mac 	"CW dev" 	nan
scalar NetworkMultiRadioIPv4.mobileHost[2].wlan[0].mac 	"Mean service time" 	0
scalar NetworkMultiRadioIPv4.mobileHost[2].wlan[0].mac 	numSent 	0
scalar NetworkMultiRadioIPv4.mobileHost[2].wlan[0].mac 	numSentWithoutRetry 	0
scalar NetworkMultiRadioIPv4.mobileHost[2].wlan[0].mac 	numReceived 	876
scalar NetworkMultiRadioIPv4.mobileHost[2].wlan[0].mac 	numSelfReceived 	0
scalar NetworkMultiRadioIPv4.mobileHost[2].wlan[0].mac 	numSentBroadcast 	-1
scalar NetworkMultiRadioIPv4.mobileHost[2].wlan[0].mac 	numReceivedBroadcast 	0
scalar NetworkMultiRadioIPv4.mobileHost[2].wlan[0].mac 	numReceivedOther 	9007
scalar NetworkMultiRadioIPv4.mobileHost[2].wlan[0].mac 	numCollision 	5611
scalar NetworkMultiRadioIPv4.mobileHost[2].wlan[0].mac 	numGivenUp 	0
scalar NetworkMultiRadioIPv4.mobileHost[2].wlan[0].mac 	numAckSend 	876
scalar NetworkMultiRadioIPv4.mobileHost[2].wlan[0].mac 	numRetry 	0
scalar NetworkMultiRadioIPv4.mobileHost[2].wlan[1].mgmt 	"packets received by queue" 	0
scalar NetworkMultiRadioIPv4.mobileHost[2].wlan[1].mgmt 	"packets dropped by queue" 	0
scalar NetworkMultiRadioIPv4.mobileHost[2].wlan[1].mac 	"Mean Frame Length" 	0
scalar NetworkMultiRadioIPv4.mobileHost[2].wlan[1].mac 	"Frame Length stddev" 	nan
scalar NetworkMultiRadioIPv4.mobileHost[2].wlan[1].mac 	"Sent Throughput" 	0
scalar NetworkMultiRadioIPv4.mobileHost[2].wlan[1].mac 	"CW medio" 	0
scalar NetworkMultiRadioIPv4.mobileHost[2].wlan[1].mac 	"CW max" 	0
scalar NetworkMultiRadioIPv4.mobileHost[2].wlan[1].mac 	"CW dev" 	nan
scalar NetworkMultiRadioIPv4.mobileHost[2].wlan[1].mac 	"Mean service time" 	0
scalar NetworkMultiRadioIPv4.mobileHost[2].wlan[1].mac 	numSent 	0
scalar NetworkMultiRadioIPv4.mobileHost[2].wlan[1].mac 	numSentWithoutRetry 	0
scalar NetworkMultiRadioIPv4.mobileHost[2].wlan[1].mac 	numReceived 	866
scalar NetworkMultiRadioIPv4.mobileHost[2].wlan[1].mac 	numSelfReceived 	0
scalar NetworkMultiRadioIPv4.mobileHost[2].wlan[1].mac 	numSentBroadcast 	-1
scalar NetworkMultiRadioIPv4.mobileHost[2].wlan[1].mac 	numReceivedBroadcast 	0
scalar NetworkMultiRadioIPv4.mobileHost[2].wlan[1].mac 	numReceivedOther 	8666
scalar NetworkMultiRadioIPv4.mobileHost[2].wlan[1].mac 	numCollision 	5294
scalar NetworkMultiRadioIPv4.mobileHost[2].wlan[1].mac 	numGivenUp 	0
scalar NetworkMultiRadioIPv4.mobileHost[2].wlan[1].mac 	numAckSend 	866
scalar NetworkMultiRadioIPv4.mobileHost[2].wlan[1].mac 	numRetry 	0
scalar NetworkMultiRadioIPv4.mobileHost[2].wlan[2].mgmt 	"packets received by queue" 	0
scalar NetworkMultiRadioIPv4.mobileHost[2].wlan[2].mgmt 	"packets dropped by queue" 	0
scalar NetworkMultiRadioIPv4.mobileHost[2].wlan[2].mac 	"Mean Frame Length" 	0
scalar NetworkMultiRadioIPv4.mobileHost[2].wlan[2].mac 	"Frame Length stddev" 	nan
scalar NetworkMultiRadioIPv4.mobileHost[2].wlan[2].mac 	"Sent Throughput" 	0
scalar NetworkMultiRadioIPv4.mobileHost[2].wlan[2].mac 	"CW medio" 	0
scalar NetworkMultiRadioIPv4.mobileHost[2].wlan[2].mac 	"CW max" 	0
scalar NetworkMultiRadioIPv4.mobileHost[2].wlan[2].mac 	"CW dev" 	nan
scalar NetworkMultiRadioIPv4.mobileHost[2].wlan[2].mac 	"Mean service time" 	0
scalar NetworkMultiRadioIPv4.mobileHost[2].wlan[2].mac 	numSent 	0
scalar NetworkMultiRadioIPv4.mobileHost[2].wlan[2].mac 	numSentWithoutRetry 	0
scalar NetworkMultiRadioIPv4.mobileHost[2].wlan[2].mac 	numReceived 	821
scalar NetworkMultiRadioIPv4.mobileHost[2].wlan[2].mac 	numSelfReceived 	0
scalar NetworkMultiRadioIPv4.mobileHost[2].wlan[2].mac 	numSentBroadcast 	-1
scalar NetworkMultiRadioIPv4.mobileHost[2].wlan[2].mac 	numReceivedBroadcast 	0
scalar NetworkMultiRadioIPv4.mobileHost[2].wlan[2].mac 	numReceivedOther 	8783
scalar NetworkMultiRadioIPv4.mobileHost[2].wlan[2].mac 	numCollision 	5347
scalar NetworkMultiRadioIPv4.mobileHost[2].wlan[2].mac 	numGivenUp 	0
scalar NetworkMultiRadioIPv4.mobileHost[2].wlan[2].mac 	numAckSend 	821
scalar NetworkMultiRadioIPv4.mobileHost[2].wlan[2].mac 	numRetry 	0
scalar NetworkMultiRadioIPv4.mobileHost[2].manetRouting.manetmanager.manetroutingprotocol 	"Position X" 	300
scalar NetworkMultiRadioIPv4.mobileHost[2].manetRouting.manetmanager.manetroutingprotocol 	"Position Y" 	0
scalar NetworkMultiRadioIPv4.mobileHost[2].manetRouting.manetmanager.manetroutingprotocol 	lonelyCount 	0
scalar NetworkMultiRadioIPv4.mobileHost[2].manetRouting.manetmanager.manetroutingprotocol 	noNextHopCount 	0
scalar NetworkMultiRadioIPv4.mobileHost[3].udpApp[0] 	"Total send" 	0
scalar NetworkMultiRadioIPv4.mobileHost[3].udpApp[0] 	"Total received" 	1500
scalar NetworkMultiRadioIPv4.mobileHost[3].udpApp[0] 	"Total deleted" 	183
scalar NetworkMultiRadioIPv4.mobileHost[3].udpApp[0] 	"Mean delay" 	0.011750468815365
scalar NetworkMultiRadioIPv4.mobileHost[3].udpApp[0] 	"Min delay" 	0.0002715
scalar NetworkMultiRadioIPv4.mobileHost[3].udpApp[0] 	"Max delay" 	0.083765782787
scalar NetworkMultiRadioIPv4.mobileHost[3].udpApp[0] 	"Deviation delay" 	0.011336264378576
scalar NetworkMultiRadioIPv4.mobileHost[3].udpApp[0] 	"TTL29 NumOfBurstsReceived" 	2
scalar NetworkMultiRadioIPv4.mobileHost[3].udpApp[0] 	"TTL29 NumOfPacketsReceived" 	1500
scalar NetworkMultiRadioIPv4.mobileHost[3].udpApp[1] 	"Total send" 	927
scalar NetworkMultiRadioIPv4.mobileHost[3].udpApp[1] 	"Total received" 	0
scalar NetworkMultiRadioIPv4.mobileHost[3].udpApp[1] 	"Total deleted" 	0
scalar NetworkMultiRadioIPv4.mobileHost[3].udpApp[1] 	"Mean delay" 	0
scalar NetworkMultiRadioIPv4.mobileHost[3].udpApp[1] 	"Min delay" 	0
scalar NetworkMultiRadioIPv4.mobileHost[3].udpApp[1] 	"Max delay" 	0
scalar NetworkMultiRadioIPv4.mobileHost[3].udpApp[1] 	"Deviation delay" 	nan
scalar NetworkMultiRadioIPv4.mobileHost[3].udpApp[2] 	"Total send" 	0
scalar NetworkMultiRadioIPv4.mobileHost[3].udpApp[2] 	"Total received" 	0
scalar NetworkMultiRadioIPv4.mobileHost[3].udpApp[2] 	"Total deleted" 	0
scalar NetworkMultiRadioIPv4.mobileHost[3].udpApp[2] 	"Mean delay" 	0
scalar NetworkMultiRadioIPv4.mobileHost[3].udpApp[2] 	"Min delay" 	0
scalar NetworkMultiRadioIPv4.mobileHost[3].udpApp[2] 	"Max delay" 	0
scalar NetworkMultiRadioIPv4.mobileHost[3].udpApp[2] 	"Deviation delay" 	nan
scalar NetworkMultiRadioIPv4.mobileHost[3].pingApp 	"Pings sent" 	0
scalar NetworkMultiRadioIPv4.mobileHost[3].wlan[0].mgmt 	"packets received by queue" 	286
scalar NetworkMultiRadioIPv4.mobileHost[3].wlan[0].mgmt 	"packets dropped by queue" 	0
scalar NetworkMultiRadioIPv4.mobileHost[3].wlan[0].mac 	"Mean Frame Length" 	222
scalar NetworkMultiRadioIPv4.mobileHost[3].wlan[0].mac 	"Frame Length stddev" 	0
scalar NetworkMultiRadioIPv4.mobileHost[3].wlan[0].mac 	"Sent Throughput" 	0.022910399465913
scalar NetworkMultiRadioIPv4.mobileHost[3].wlan[0].mac 	"CW medio" 	132.58493353028
scalar NetworkMultiRadioIPv4.mobileHost[3].wlan[0].mac 	"CW max" 	972
scalar NetworkMultiRadioIPv4.mobileHost[3].wlan[0].mac 	"CW dev" 	190.33472682147
scalar NetworkMultiRadioIPv4.mobileHost[3].wlan[0].mac 	"Mean service time" 	0.0038393378492132
scalar NetworkMultiRadioIPv4.mobileHost[3].wlan[0].mac 	numSent 	258
scalar NetworkMultiRadioIPv4.mobileHost[3].wlan[0].mac 	numSentWithoutRetry 	93
scalar NetworkMultiRadioIPv4.mobileHost[3].wlan[0].mac 	numReceived 	556
scalar NetworkMultiRadioIPv4.mobileHost[3].wlan[0].mac 	numSelfReceived 	286
scalar NetworkMultiRadioIPv4.mobileHost[3].wlan[0].mac 	numSentBroadcast 	-1
scalar NetworkMultiRadioIPv4.mobileHost[3].wlan[0].mac 	numReceivedBroadcast 	0
scalar NetworkMultiRadioIPv4.mobileHost[3].wlan[0].mac 	numReceivedOther 	7356
scalar NetworkMultiRadioIPv4.mobileHost[3].wlan[0].mac 	numCollision 	4052
scalar NetworkMultiRadioIPv4.mobileHost[3].wlan[0].mac 	numGivenUp 	28
scalar NetworkMultiRadioIPv4.mobileHost[3].wlan[0].mac 	numAckSend 	556
scalar NetworkMultiRadioIPv4.mobileHost[3].wlan[0].mac 	numRetry 	592
scalar NetworkMultiRadioIPv4.mobileHost[3].wlan[1].mgmt 	"packets received by queue" 	301
scalar NetworkMultiRadioIPv4.mobileHost[3].wlan[1].mgmt 	"packets dropped by queue" 	0
scalar NetworkMultiRadioIPv4.mobileHost[3].wlan[1].mac 	"Mean Frame Length" 	222
scalar NetworkMultiRadioIPv4.mobileHost[3].wlan[1].mac 	"Frame Length stddev" 	0
scalar NetworkMultiRadioIPv4.mobileHost[3].wlan[1].mac 	"Sent Throughput" 	0.024419999430721
scalar NetworkMultiRadioIPv4.mobileHost[3].wlan[1].mac 	"CW medio" 	135.88933333333
scalar NetworkMultiRadioIPv4.mobileHost[3].wlan[1].mac 	"CW max" 	1021
scalar NetworkMultiRadioIPv4.mobileHost[3].wlan[1].mac 	"CW dev" 	198.85831621062
scalar NetworkMultiRadioIPv4.mobileHost[3].wlan[1].mac 	"Mean service time" 	0.0041041252745855
scalar NetworkMultiRadioIPv4.mobileHost[3].wlan[1].mac 	numSent 	275
scalar NetworkMultiRadioIPv4.mobileHost[3].wlan[1].mac 	numSentWithoutRetry 	80
scalar NetworkMultiRadioIPv4.mobileHost[3].wlan[1].mac 	numReceived 	565
scalar NetworkMultiRadioIPv4.mobileHost[3].wlan[1].mac 	numSelfReceived 	301
scalar NetworkMultiRadioIPv4.mobileHost[3].wlan[1].mac 	numSentBroadcast 	-1
scalar NetworkMultiRadioIPv4.mobileHost[3].wlan[1].mac 	numReceivedBroadcast 	0
scalar NetworkMultiRadioIPv4.mobileHost[3].wlan[1].mac 	numReceivedOther 	7281
scalar NetworkMultiRadioIPv4.mobileHost[3].wlan[1].mac 	numCollision 	3829
scalar NetworkMultiRadioIPv4.mobileHost[3].wlan[1].mac 	numGivenUp 	26
scalar NetworkMultiRadioIPv4.mobileHost[3].wlan[1].mac 	numAckSend 	565
scalar NetworkMultiRadioIPv4.mobileHost[3].wlan[1].mac 	numRetry 	652
scalar NetworkMultiRadioIPv4.mobileHost[3].wlan[2].mgmt 	"packets received by queue" 	334
scalar NetworkMultiRadioIPv4.mobileHost[3].wlan[2].mgmt 	"packets dropped by queue" 	0
scalar NetworkMultiRadioIPv4.mobileHost[3].wlan[2].mac 	"Mean Frame Length" 	222
scalar NetworkMultiRadioIPv4.mobileHost[3].wlan[2].mac 	"Frame Length stddev" 	0
scalar NetworkMultiRadioIPv4.mobileHost[3].wlan[2].mac 	"Sent Throughput" 	0.025751999399669
scalar NetworkMultiRadioIPv4.mobileHost[3].wlan[2].mac 	"CW medio" 	148.2705601907
scalar NetworkMultiRadioIPv4.mobileHost[3].wlan[2].mac 	"CW max" 	1021
scalar NetworkMultiRadioIPv4.mobileHost[3].wlan[2].mac 	"CW dev" 	220.8709263106
scalar NetworkMultiRadioIPv4.mobileHost[3].wlan[2].mac 	"Mean service time" 	0.0034896969899724
scalar NetworkMultiRadioIPv4.mobileHost[3].wlan[2].mac 	numSent 	290
scalar NetworkMultiRadioIPv4.mobileHost[3].wlan[2].mac 	numSentWithoutRetry 	93
scalar NetworkMultiRadioIPv4.mobileHost[3].wlan[2].mac 	numReceived 	562
scalar NetworkMultiRadioIPv4.mobileHost[3].wlan[2].mac 	numSelfReceived 	334
scalar NetworkMultiRadioIPv4.mobileHost[3].wlan[2].mac 	numSentBroadcast 	-1
scalar NetworkMultiRadioIPv4.mobileHost[3].wlan[2].mac 	numReceivedBroadcast 	0
scalar NetworkMultiRadioIPv4.mobileHost[3].wlan[2].mac 	numReceivedOther 	7043
scalar NetworkMultiRadioIPv4.mobileHost[3].wlan[2].mac 	numCollision 	3770
scalar NetworkMultiRadioIPv4.mobileHost[3].wlan[2].mac 	numGivenUp 	44
scalar NetworkMultiRadioIPv4.mobileHost[3].wlan[2].mac 	numAckSend 	562
scalar NetworkMultiRadioIPv4.mobileHost[3].wlan[2].mac 	numRetry 	744
scalar NetworkMultiRadioIPv4.mobileHost[3].manetRouting.manetmanager.manetroutingprotocol 	"Position X" 	450
scalar NetworkMultiRadioIPv4.mobileHost[3].manetRouting.manetmanager.manetroutingprotocol 	"Position Y" 	0
scalar NetworkMultiRadioIPv4.mobileHost[3].manetRouting.manetmanager.manetroutingprotocol 	lonelyCount 	0
scalar NetworkMultiRadioIPv4.mobileHost[3].manetRouting.manetmanager.manetroutingprotocol 	noNextHopCount 	0
scalar NetworkMultiRadioIPv4.mobileHost[4].udpApp[0] 	"Total send" 	0
scalar NetworkMultiRadioIPv4.mobileHost[4].udpApp[0] 	"Total received" 	685
scalar NetworkMultiRadioIPv4.mobileHost[4].udpApp[0] 	"Total deleted" 	143
scalar NetworkMultiRadioIPv4.mobileHost[4].udpApp[0] 	"Mean delay" 	0.018333370659885
scalar NetworkMultiRadioIPv4.mobileHost[4].udpApp[0] 	"Min delay" 	0.000610207106
scalar NetworkMultiRadioIPv4.mobileHost[4].udpApp[0] 	"Max delay" 	0.096290372692
scalar NetworkMultiRadioIPv4.mobileHost[4].udpApp[0] 	"Deviation delay" 	0.015119650852756
scalar NetworkMultiRadioIPv4.mobileHost[4].udpApp[0] 	"TTL28 NumOfBurstsReceived" 	1
scalar NetworkMultiRadioIPv4.mobileHost[4].udpApp[0] 	"TTL28 NumOfPacketsReceived" 	685
scalar NetworkMultiRadioIPv4.mobileHost[4].udpApp[1] 	"Total send" 	0
scalar NetworkMultiRadioIPv4.mobileHost[4].udpApp[1] 	"Total received" 	0
scalar NetworkMultiRadioIPv4.mobileHost[4].udpApp[1] 	"Total deleted" 	0
scalar NetworkMultiRadioIPv4.mobileHost[4].udpApp[1] 	"Mean delay" 	0
scalar NetworkMultiRadioIPv4.mobileHost[4].udpApp[1] 	"Min delay" 	0
scalar NetworkMultiRadioIPv4.mobileHost[4].udpApp[1] 	"Max delay" 	0
scalar NetworkMultiRadioIPv4.mobileHost[4].udpApp[1] 	"Deviation delay" 	nan
scalar NetworkMultiRadioIPv4.mobileHost[4].udpApp[2] 	"Total send" 	0
scalar NetworkMultiRadioIPv4.mobileHost[4].udpApp[2] 	"Total received" 	0
scalar NetworkMultiRadioIPv4.mobileHost[4].udpApp[2] 	"Total deleted" 	0
scalar NetworkMultiRadioIPv4.mobileHost[4].udpApp[2] 	"Mean delay" 	0
scalar NetworkMultiRadioIPv4.mobileHost[4].udpApp[2] 	"Min delay" 	0
scalar NetworkMultiRadioIPv4.mobileHost[4].udpApp[2] 	"Max delay" 	0
scalar NetworkMultiRadioIPv4.mobileHost[4].udpApp[2] 	"Deviation delay" 	nan
scalar NetworkMultiRadioIPv4.mobileHost[4].pingApp 	"Pings sent" 	0
scalar NetworkMultiRadioIPv4.mobileHost[4].wlan[0].mgmt 	"packets received by queue" 	0
scalar NetworkMultiRadioIPv4.mobileHost[4].wlan[0].mgmt 	"packets dropped by queue" 	0
scalar NetworkMultiRadioIPv4.mobileHost[4].wlan[0].mac 	"Mean Frame Length" 	0
scalar NetworkMultiRadioIPv4.mobileHost[4].wlan[0].mac 	"Frame Length stddev" 	nan
scalar NetworkMultiRadioIPv4.mobileHost[4].wlan[0].mac 	"Sent Throughput" 	0
scalar NetworkMultiRadioIPv4.mobileHost[4].wlan[0].mac 	"CW medio" 	0
scalar NetworkMultiRadioIPv4.mobileHost[4].wlan[0].mac 	"CW max" 	0
scalar NetworkMultiRadioIPv4.mobileHost[4].wlan[0].mac 	"CW dev" 	nan
scalar NetworkMultiRadioIPv4.mobileHost[4].wlan[0].mac 	"Mean service time" 	0
scalar NetworkMultiRadioIPv4.mobileHost[4].wlan[0].mac 	numSent 	0
scalar NetworkMultiRadioIPv4.mobileHost[4].wlan[0].mac 	numSentWithoutRetry 	0
scalar NetworkMultiRadioIPv4.mobileHost[4].wlan[0].mac 	numReceived 	266
scalar NetworkMultiRadioIPv4.mobileHost[4].wlan[0].mac 	numSelfReceived 	0
scalar NetworkMultiRadioIPv4.mobileHost[4].wlan[0].mac 	numSentBroadcast 	-1
scalar NetworkMultiRadioIPv4.mobileHost[4].wlan[0].mac 	numReceivedBroadcast 	0
scalar NetworkMultiRadioIPv4.mobileHost[4].wlan[0].mac 	numReceivedOther 	9022
scalar NetworkMultiRadioIPv4.mobileHost[4].wlan[0].mac 	numCollision 	5175
scalar NetworkMultiRadioIPv4.mobileHost[4].wlan[0].mac 	numGivenUp 	0
scalar NetworkMultiRadioIPv4.mobileHost[4].wlan[0].mac 	numAckSend 	266
scalar NetworkMultiRadioIPv4.mobileHost[4].wlan[0].mac 	numRetry 	0
scalar NetworkMultiRadioIPv4.mobileHost[4].wlan[1].mgmt 	"packets received by queue" 	0
scalar NetworkMultiRadioIPv4.mobileHost[4].wlan[1].mgmt 	"packets dropped by queue" 	0
scalar NetworkMultiRadioIPv4.mobileHost[4].wlan[1].mac 	"Mean Frame Length" 	0
scalar NetworkMultiRadioIPv4.mobileHost[4].wlan[1].mac 	"Frame Length stddev" 	nan
scalar NetworkMultiRadioIPv4.mobileHost[4].wlan[1].mac 	"Sent Throughput" 	0
scalar NetworkMultiRadioIPv4.mobileHost[4].wlan[1].mac 	"CW medio" 	0
scalar NetworkMultiRadioIPv4.mobileHost[4].wlan[1].mac 	"CW max" 	0
scalar NetworkMultiRadioIPv4.mobileHost[4].wlan[1].mac 	"CW dev" 	nan
scalar NetworkMultiRadioIPv4.mobileHost[4].wlan[1].mac 	"Mean service time" 	0
scalar NetworkMultiRadioIPv4.mobileHost[4].wlan[1].mac 	numSent 	0
scalar NetworkMultiRadioIPv4.mobileHost[4].wlan[1].mac 	numSentWithoutRetry 	0
scalar NetworkMultiRadioIPv4.mobileHost[4].wlan[1].mac 	numReceived 	280
scalar NetworkMultiRadioIPv4.mobileHost[4].wlan[1].mac 	numSelfReceived 	0
scalar NetworkMultiRadioIPv4.mobileHost[4].wlan[1].mac 	numSentBroadcast 	-1
scalar NetworkMultiRadioIPv4.mobileHost[4].wlan[1].mac 	numReceivedBroadcast 	0
scalar NetworkMultiRadioIPv4.mobileHost[4].wlan[1].mac 	numReceivedOther 	8940
scalar NetworkMultiRadioIPv4.mobileHost[4].wlan[1].mac 	numCollision 	4923
scalar NetworkMultiRadioIPv4.mobileHost[4].wlan[1].mac 	numGivenUp 	0
scalar NetworkMultiRadioIPv4.mobileHost[4].wlan[1].mac 	numAckSend 	280
scalar NetworkMultiRadioIPv4.mobileHost[4].wlan[1].mac 	numRetry 	0
scalar NetworkMultiRadioIPv4.mobileHost[4].wlan[2].mgmt 	"packets received by queue" 	0
scalar NetworkMultiRadioIPv4.mobileHost[4].wlan[2].mgmt 	"packets dropped by queue" 	0
scalar NetworkMultiRadioIPv4.mobileHost[4].wlan[2].mac 	"Mean Frame Length" 	0
scalar NetworkMultiRadioIPv4.mobileHost[4].wlan[2].mac 	"Frame Length stddev" 	nan
scalar NetworkMultiRadioIPv4.mobileHost[4].wlan[2].mac 	"Sent Throughput" 	0
scalar NetworkMultiRadioIPv4.mobileHost[4].wlan[2].mac 	"CW medio" 	0
scalar NetworkMultiRadioIPv4.mobileHost[4].wlan[2].mac 	"CW max" 	0
scalar NetworkMultiRadioIPv4.mobileHost[4].wlan[2].mac 	"CW dev" 	nan
scalar NetworkMultiRadioIPv4.mobileHost[4].wlan[2].mac 	"Mean service time" 	0
scalar NetworkMultiRadioIPv4.mobileHost[4].wlan[2].mac 	numSent 	0
scalar NetworkMultiRadioIPv4.mobileHost[4].wlan[2].mac 	numSentWithoutRetry 	0
scalar NetworkMultiRadioIPv4.mobileHost[4].wlan[2].mac 	numReceived 	282
scalar NetworkMultiRadioIPv4.mobileHost[4].wlan[2].mac 	numSelfReceived 	0
scalar NetworkMultiRadioIPv4.mobileHost[4].wlan[2].mac 	numSentBroadcast 	-1
scalar NetworkMultiRadioIPv4.mobileHost[4].wlan[2].mac 	numReceivedBroadcast 	0
scalar NetworkMultiRadioIPv4.mobileHost[4].wlan[2].mac 	numReceivedOther 	8771
scalar NetworkMultiRadioIPv4.mobileHost[4].wlan[2].mac 	numCollision 	5141
scalar NetworkMultiRadioIPv4.mobileHost[4].wlan[2].mac 	numGivenUp 	0
scalar NetworkMultiRadioIPv4.mobileHost[4].wlan[2].mac 	numAckSend 	282
scalar NetworkMultiRadioIPv4.mobileHost[4].wlan[2].mac 	numRetry 	0
scalar NetworkMultiRadioIPv4.mobileHost[4].manetRouting.manetmanager.manetroutingprotocol 	"Position X" 	600
scalar NetworkMultiRadioIPv4.mobileHost[4].manetRouting.manetmanager.manetroutingprotocol 	"Position Y" 	0
scalar NetworkMultiRadioIPv4.mobileHost[4].manetRouting.manetmanager.manetroutingprotocol 	lonelyCount 	0
scalar NetworkMultiRadioIPv4.mobileHost[4].manetRouting.manetmanager.manetroutingprotocol 	noNextHopCount 	0
scalar NetworkMultiRadioIPv4.mobileHost[5].udpApp[0] 	"Total send" 	0
scalar NetworkMultiRadioIPv4.mobileHost[5].udpApp[0] 	"Total received" 	1715
scalar NetworkMultiRadioIPv4.mobileHost[5].udpApp[0] 	"Total deleted" 	79
scalar NetworkMultiRadioIPv4.mobileHost[5].udpApp[0] 	"Mean delay" 	0.0054627275365895
scalar NetworkMultiRadioIPv4.mobileHost[5].udpApp[0] 	"Min delay" 	9.05e-05
scalar NetworkMultiRadioIPv4.mobileHost[5].udpApp[0] 	"Max delay" 	0.049045320251
scalar NetworkMultiRadioIPv4.mobileHost[5].udpApp[0] 	"Deviation delay" 	0.0073138378236233
scalar NetworkMultiRadioIPv4.mobileHost[5].udpApp[0] 	"TTL28 NumOfBurstsReceived" 	1
scalar NetworkMultiRadioIPv4.mobileHost[5].udpApp[0] 	"TTL28 NumOfPacketsReceived" 	824
scalar NetworkMultiRadioIPv4.mobileHost[5].udpApp[0] 	"TTL31 NumOfBurstsReceived" 	1
scalar NetworkMultiRadioIPv4.mobileHost[5].udpApp[0] 	"TTL31 NumOfPacketsReceived" 	891
scalar NetworkMultiRadioIPv4.mobileHost[5].udpApp[1] 	"Total send" 	929
scalar NetworkMultiRadioIPv4.mobileHost[5].udpApp[1] 	"Total received" 	0
scalar NetworkMultiRadioIPv4.mobileHost[5].udpApp[1] 	"Total deleted" 	0
scalar NetworkMultiRadioIPv4.mobileHost[5].udpApp[1] 	"Mean delay" 	0
scalar NetworkMultiRadioIPv4.mobileHost[5].udpApp[1] 	"Min delay" 	0
scalar NetworkMultiRadioIPv4.mobileHost[5].udpApp[1] 	"Max delay" 	0
scalar NetworkMultiRadioIPv4.mobileHost[5].udpApp[1] 	"Deviation delay" 	nan
scalar NetworkMultiRadioIPv4.mobileHost[5].udpApp[2] 	"Total send" 	927
scalar NetworkMultiRadioIPv4.mobileHost[5].udpApp[2] 	"Total received" 	0
scalar NetworkMultiRadioIPv4.mobileHost[5].udpApp[2] 	"Total deleted" 	0
scalar NetworkMultiRadioIPv4.mobileHost[5].udpApp[2] 	"Mean delay" 	0
scalar NetworkMultiRadioIPv4.mobileHost[5].udpApp[2] 	"Min delay" 	0
scalar NetworkMultiRadioIPv4.mobileHost[5].udpApp[2] 	"Max delay" 	0
scalar NetworkMultiRadioIPv4.mobileHost[5].udpApp[2] 	"Deviation delay" 	nan
scalar NetworkMultiRadioIPv4.mobileHost[5].pingApp 	"Pings sent" 	0
scalar NetworkMultiRadioIPv4.mobileHost[5].wlan[0].mgmt 	"packets received by queue" 	632
scalar NetworkMultiRadioIPv4.mobileHost[5].wlan[0].mgmt 	"packets dropped by queue" 	0
scalar NetworkMultiRadioIPv4.mobileHost[5].wlan[0].mac 	"Mean Frame Length" 	222
scalar NetworkMultiRadioIPv4.mobileHost[5].wlan[0].mac 	"Frame Length stddev" 	0
scalar NetworkMultiRadioIPv4.mobileHost[5].wlan[0].mac 	"Sent Throughput" 	0.05026079882832
scalar NetworkMultiRadioIPv4.mobileHost[5].wlan[0].mac 	"CW medio" 	134.18569553806
scalar NetworkMultiRadioIPv4.mobileHost[5].wlan[0].mac 	"CW max" 	1016
scalar NetworkMultiRadioIPv4.mobileHost[5].wlan[0].mac 	"CW dev" 	191.10909049606
scalar NetworkMultiRadioIPv4.mobileHost[5].wlan[0].mac 	"Mean service time" 	0.0038718651335636
scalar NetworkMultiRadioIPv4.mobileHost[5].wlan[0].mac 	numSent 	566
scalar NetworkMultiRadioIPv4.mobileHost[5].wlan[0].mac 	numSentWithoutRetry 	177
scalar NetworkMultiRadioIPv4.mobileHost[5].wlan[0].mac 	numReceived 	629
scalar NetworkMultiRadioIPv4.mobileHost[5].wlan[0].mac 	numSelfReceived 	632
scalar NetworkMultiRadioIPv4.mobileHost[5].wlan[0].mac 	numSentBroadcast 	-1
scalar NetworkMultiRadioIPv4.mobileHost[5].wlan[0].mac 	numReceivedBroadcast 	0
scalar NetworkMultiRadioIPv4.mobileHost[5].wlan[0].mac 	numReceivedOther 	3094
scalar NetworkMultiRadioIPv4.mobileHost[5].wlan[0].mac 	numCollision 	2385
scalar NetworkMultiRadioIPv4.mobileHost[5].wlan[0].mac 	numGivenUp 	65
scalar NetworkMultiRadioIPv4.mobileHost[5].wlan[0].mac 	numAckSend 	629
scalar NetworkMultiRadioIPv4.mobileHost[5].wlan[0].mac 	numRetry 	1379
scalar NetworkMultiRadioIPv4.mobileHost[5].wlan[1].mgmt 	"packets received by queue" 	605
scalar NetworkMultiRadioIPv4.mobileHost[5].wlan[1].mgmt 	"packets dropped by queue" 	0
scalar NetworkMultiRadioIPv4.mobileHost[5].wlan[1].mac 	"Mean Frame Length" 	222
scalar NetworkMultiRadioIPv4.mobileHost[5].wlan[1].mac 	"Frame Length stddev" 	0
scalar NetworkMultiRadioIPv4.mobileHost[5].wlan[1].mac 	"Sent Throughput" 	0.048751198863512
scalar NetworkMultiRadioIPv4.mobileHost[5].wlan[1].mac 	"CW medio" 	137.00654545455
scalar NetworkMultiRadioIPv4.mobileHost[5].wlan[1].mac 	"CW max" 	1021
scalar NetworkMultiRadioIPv4.mobileHost[5].wlan[1].mac 	"CW dev" 	204.62772485551
scalar NetworkMultiRadioIPv4.mobileHost[5].wlan[1].mac 	"Mean service time" 	0.003636143212388
scalar NetworkMultiRadioIPv4.mobileHost[5].wlan[1].mac 	numSent 	549
scalar NetworkMultiRadioIPv4.mobileHost[5].wlan[1].mac 	numSentWithoutRetry 	182
scalar NetworkMultiRadioIPv4.mobileHost[5].wlan[1].mac 	numReceived 	564
scalar NetworkMultiRadioIPv4.mobileHost[5].wlan[1].mac 	numSelfReceived 	605
scalar NetworkMultiRadioIPv4.mobileHost[5].wlan[1].mac 	numSentBroadcast 	-1
scalar NetworkMultiRadioIPv4.mobileHost[5].wlan[1].mac 	numReceivedBroadcast 	0
scalar NetworkMultiRadioIPv4.mobileHost[5].wlan[1].mac 	numReceivedOther 	3073
scalar NetworkMultiRadioIPv4.mobileHost[5].wlan[1].mac 	numCollision 	2175
scalar NetworkMultiRadioIPv4.mobileHost[5].wlan[1].mac 	numGivenUp 	56
scalar NetworkMultiRadioIPv4.mobileHost[5].wlan[1].mac 	numAckSend 	564
scalar NetworkMultiRadioIPv4.mobileHost[5].wlan[1].mac 	numRetry 	1243
scalar NetworkMultiRadioIPv4.mobileHost[5].wlan[2].mgmt 	"packets received by queue" 	617
scalar NetworkMultiRadioIPv4.mobileHost[5].wlan[2].mgmt 	"packets dropped by queue" 	0
scalar NetworkMultiRadioIPv4.mobileHost[5].wlan[2].mac 	"Mean Frame Length" 	222
scalar NetworkMultiRadioIPv4.mobileHost[5].wlan[2].mac 	"Frame Length stddev" 	0
scalar NetworkMultiRadioIPv4.mobileHost[5].wlan[2].mac 	"Sent Throughput" 	0.048307198873863
scalar NetworkMultiRadioIPv4.mobileHost[5].wlan[2].mac 	"CW medio" 	136.40661478599
scalar NetworkMultiRadioIPv4.mobileHost[5].wlan[2].mac 	"CW max" 	1020
scalar NetworkMultiRadioIPv4.mobileHost[5].wlan[2].mac 	"CW dev" 	195.32125661388
scalar NetworkMultiRadioIPv4.mobileHost[5].wlan[2].mac 	"Mean service time" 	0.0037446606978676
scalar NetworkMultiRadioIPv4.mobileHost[5].wlan[2].mac 	numSent 	544
scalar NetworkMultiRadioIPv4.mobileHost[5].wlan[2].mac 	numSentWithoutRetry 	150
scalar NetworkMultiRadioIPv4.mobileHost[5].wlan[2].mac 	numReceived 	601
scalar NetworkMultiRadioIPv4.mobileHost[5].wlan[2].mac 	numSelfReceived 	617
scalar NetworkMultiRadioIPv4.mobileHost[5].wlan[2].mac 	numSentBroadcast 	-1
scalar NetworkMultiRadioIPv4.mobileHost[5].wlan[2].mac 	numReceivedBroadcast 	0
scalar NetworkMultiRadioIPv4.mobileHost[5].wlan[2].mac 	numReceivedOther 	3086
scalar NetworkMultiRadioIPv4.mobileHost[5].wlan[2].mac 	numCollision 	2269
scalar NetworkMultiRadioIPv4.mobileHost[5].wlan[2].mac 	numGivenUp 	73
scalar NetworkMultiRadioIPv4.mobileHost[5].wlan[2].mac 	numAckSend 	601
scalar NetworkMultiRadioIPv4.mobileHost[5].wlan[2].mac 	numRetry 	1409
scalar NetworkMultiRadioIPv4.mobileHost[5].manetRouting.manetmanager.manetroutingprotocol 	"Position X" 	750
scalar NetworkMultiRadioIPv4.mobileHost[5].manetRouting.manetmanager.manetroutingprotocol 	"Position Y" 	0
scalar NetworkMultiRadioIPv4.mobileHost[5].manetRouting.manetmanager.manetroutingprotocol 	lonelyCount 	0
scalar NetworkMultiRadioIPv4.mobileHost[5].manetRouting.manetmanager.manetroutingprotocol 	noNextHopCount 	0
scalar NetworkMultiRadioIPv4.mobileHost[6].udpApp[0] 	"Total send" 	927
scalar NetworkMultiRadioIPv4.mobileHost[6].udpApp[0] 	"Total received" 	726
scalar NetworkMultiRadioIPv4.mobileHost[6].udpApp[0] 	"Total deleted" 	112
scalar NetworkMultiRadioIPv4.mobileHost[6].udpApp[0] 	"Mean delay" 	0.016696027450171
scalar NetworkMultiRadioIPv4.mobileHost[6].udpApp[0] 	"Min delay" 	0.000597207106
scalar NetworkMultiRadioIPv4.mobileHost[6].udpApp[0] 	"Max delay" 	0.069062794467
scalar NetworkMultiRadioIPv4.mobileHost[6].udpApp[0] 	"Deviation delay" 	0.012677865915335
scalar NetworkMultiRadioIPv4.mobileHost[6].udpApp[0] 	"TTL28 NumOfBurstsReceived" 	1
scalar NetworkMultiRadioIPv4.mobileHost[6].udpApp[0] 	"TTL28 NumOfPacketsReceived" 	726
scalar NetworkMultiRadioIPv4.mobileHost[6].udpApp[1] 	"Total send" 	0
scalar NetworkMultiRadioIPv4.mobileHost[6].udpApp[1] 	"Total received" 	0
scalar NetworkMultiRadioIPv4.mobileHost[6].udpApp[1] 	"Total deleted" 	0
scalar NetworkMultiRadioIPv4.mobileHost[6].udpApp[1] 	"Mean delay" 	0
scalar NetworkMultiRadioIPv4.mobileHost[6].udpApp[1] 	"Min delay" 	0
scalar NetworkMultiRadioIPv4.mobileHost[6].udpApp[1] 	"Max delay" 	0
scalar NetworkMultiRadioIPv4.mobileHost[6].udpApp[1] 	"Deviation delay" 	nan
scalar NetworkMultiRadioIPv4.mobileHost[6].udpApp[2] 	"Total send" 	0
scalar NetworkMultiRadioIPv4.mobileHost[6].udpApp[2] 	"Total received" 	0
scalar NetworkMultiRadioIPv4.mobileHost[6].udpApp[2] 	"Total deleted" 	0
scalar NetworkMultiRadioIPv4.mobileHost[6].udpApp[2] 	"Mean delay" 	0
scalar NetworkMultiRadioIPv4.mobileHost[6].udpApp[2] 	"Min delay" 	0
scalar NetworkMultiRadioIPv4.mobileHost[6].udpApp[2] 	"Max delay" 	0
scalar NetworkMultiRadioIPv4.mobileHost[6].udpApp[2] 	"Deviation delay" 	nan
scalar NetworkMultiRadioIPv4.mobileHost[6].pingApp 	"Pings sent" 	0
scalar NetworkMultiRadioIPv4.mobileHost[6].wlan[0].mgmt 	"packets received by queue" 	832
scalar NetworkMultiRadioIPv4.mobileHost[6].wlan[0].mgmt 	"packets dropped by queue" 	0
scalar NetworkMultiRadioIPv4.mobileHost[6].wlan[0].mac 	"Mean Frame Length" 	222
scalar NetworkMultiRadioIPv4.mobileHost[6].wlan[0].mac 	"Frame Length stddev" 	0
scalar NetworkMultiRadioIPv4.mobileHost[6].wlan[0].mac 	"Sent Throughput" 	0.073171198294233
scalar NetworkMultiRadioIPv4.mobileHost[6].wlan[0].mac 	"CW medio" 	63.656351791531
scalar NetworkMultiRadioIPv4.mobileHost[6].wlan[0].mac 	"CW max" 	1021
scalar NetworkMultiRadioIPv4.mobileHost[6].wlan[0].mac 	"CW dev" 	109.81004930259
scalar NetworkMultiRadioIPv4.mobileHost[6].wlan[0].mac 	"Mean service time" 	0.0022643176689733
scalar NetworkMultiRadioIPv4.mobileHost[6].wlan[0].mac 	numSent 	824
scalar NetworkMultiRadioIPv4.mobileHost[6].wlan[0].mac 	numSentWithoutRetry 	422
scalar NetworkMultiRadioIPv4.mobileHost[6].wlan[0].mac 	numReceived 	860
scalar NetworkMultiRadioIPv4.mobileHost[6].wlan[0].mac 	numSelfReceived 	832
scalar NetworkMultiRadioIPv4.mobileHost[6].wlan[0].mac 	numSentBroadcast 	-1
scalar NetworkMultiRadioIPv4.mobileHost[6].wlan[0].mac 	numReceivedBroadcast 	0
scalar NetworkMultiRadioIPv4.mobileHost[6].wlan[0].mac 	numReceivedOther 	6197
scalar NetworkMultiRadioIPv4.mobileHost[6].wlan[0].mac 	numCollision 	4646
scalar NetworkMultiRadioIPv4.mobileHost[6].wlan[0].mac 	numGivenUp 	8
scalar NetworkMultiRadioIPv4.mobileHost[6].wlan[0].mac 	numAckSend 	860
scalar NetworkMultiRadioIPv4.mobileHost[6].wlan[0].mac 	numRetry 	810
scalar NetworkMultiRadioIPv4.mobileHost[6].wlan[1].mgmt 	"packets received by queue" 	830
scalar NetworkMultiRadioIPv4.mobileHost[6].wlan[1].mgmt 	"packets dropped by queue" 	0
scalar NetworkMultiRadioIPv4.mobileHost[6].wlan[1].mac 	"Mean Frame Length" 	222
scalar NetworkMultiRadioIPv4.mobileHost[6].wlan[1].mac 	"Frame Length stddev" 	0
scalar NetworkMultiRadioIPv4.mobileHost[6].wlan[1].mac 	"Sent Throughput" 	0.073437598288023
scalar NetworkMultiRadioIPv4.mobileHost[6].wlan[1].mac 	"CW medio" 	61.880239520958
scalar NetworkMultiRadioIPv4.mobileHost[6].wlan[1].mac 	"CW max" 	1013
scalar NetworkMultiRadioIPv4.mobileHost[6].wlan[1].mac 	"CW dev" 	109.94708111245
scalar NetworkMultiRadioIPv4.mobileHost[6].wlan[1].mac 	"Mean service time" 	0.0022507008189178
scalar NetworkMultiRadioIPv4.mobileHost[6].wlan[1].mac 	numSent 	827
scalar NetworkMultiRadioIPv4.mobileHost[6].wlan[1].mac 	numSentWithoutRetry 	442
scalar NetworkMultiRadioIPv4.mobileHost[6].wlan[1].mac 	numReceived 	793
scalar NetworkMultiRadioIPv4.mobileHost[6].wlan[1].mac 	numSelfReceived 	830
scalar NetworkMultiRadioIPv4.mobileHost[6].wlan[1].mac 	numSentBroadcast 	-1
scalar NetworkMultiRadioIPv4.mobileHost[6].wlan[1].mac 	numReceivedBroadcast 	0
scalar NetworkMultiRadioIPv4.mobileHost[6].wlan[1].mac 	numReceivedOther 	6175
scalar NetworkMultiRadioIPv4.mobileHost[6].wlan[1].mac 	numCollision 	4414
scalar NetworkMultiRadioIPv4.mobileHost[6].wlan[1].mac 	numGivenUp 	3
scalar NetworkMultiRadioIPv4.mobileHost[6].wlan[1].mac 	numAckSend 	793
scalar NetworkMultiRadioIPv4.mobileHost[6].wlan[1].mac 	numRetry 	773
scalar NetworkMultiRadioIPv4.mobileHost[6].wlan[2].mgmt 	"packets received by queue" 	877
scalar NetworkMultiRadioIPv4.mobileHost[6].wlan[2].mgmt 	"packets dropped by queue" 	0
scalar NetworkMultiRadioIPv4.mobileHost[6].wlan[2].mac 	"Mean Frame Length" 	222
scalar NetworkMultiRadioIPv4.mobileHost[6].wlan[2].mac 	"Frame Length stddev" 	0
scalar NetworkMultiRadioIPv4.mobileHost[6].wlan[2].mac 	"Sent Throughput" 	0.077167198201078
scalar NetworkMultiRadioIPv4.mobileHost[6].wlan[2].mac 	"CW medio" 	65.991331757289
scalar NetworkMultiRadioIPv4.mobileHost[6].wlan[2].mac 	"CW max" 	1022
scalar NetworkMultiRadioIPv4.mobileHost[6].wlan[2].mac 	"CW dev" 	122.53249393493
scalar NetworkMultiRadioIPv4.mobileHost[6].wlan[2].mac 	"Mean service time" 	0.0023488916749517
scalar NetworkMultiRadioIPv4.mobileHost[6].wlan[2].mac 	numSent 	869
scalar NetworkMultiRadioIPv4.mobileHost[6].wlan[2].mac 	numSentWithoutRetry 	457
scalar NetworkMultiRadioIPv4.mobileHost[6].wlan[2].mac 	numReceived 	807
scalar NetworkMultiRadioIPv4.mobileHost[6].wlan[2].mac 	numSelfReceived 	877
scalar NetworkMultiRadioIPv4.mobileHost[6].wlan[2].mac 	numSentBroadcast 	-1
scalar NetworkMultiRadioIPv4.mobileHost[6].wlan[2].mac 	numReceivedBroadcast 	0
scalar NetworkMultiRadioIPv4.mobileHost[6].wlan[2].mac 	numReceivedOther 	6352
scalar NetworkMultiRadioIPv4.mobileHost[6].wlan[2].mac 	numCollision 	4435
scalar NetworkMultiRadioIPv4.mobileHost[6].wlan[2].mac 	numGivenUp 	8
scalar NetworkMultiRadioIPv4.mobileHost[6].wlan[2].mac 	numAckSend 	807
scalar NetworkMultiRadioIPv4.mobileHost[6].wlan[2].mac 	numRetry 	845
scalar NetworkMultiRadioIPv4.mobileHost[6].manetRouting.manetmanager.manetroutingprotocol 	"Position X" 	0
scalar NetworkMultiRadioIPv4.mobileHost[6].manetRouting.manetmanager.manetroutingprotocol 	"Position Y" 	150
scalar NetworkMultiRadioIPv4.mobileHost[6].manetRouting.manetmanager.manetroutingprotocol 	lonelyCount 	0
scalar NetworkMultiRadioIPv4.mobileHost[6].manetRouting.manetmanager.manetroutingprotocol 	noNextHopCount 	0
scalar NetworkMultiRadioIPv4.mobileHost[7].udpApp[0] 	"Total send" 	928
scalar NetworkMultiRadioIPv4.mobileHost[7].udpApp[0] 	"Total received" 	636
scalar NetworkMultiRadioIPv4.mobileHost[7].udpApp[0] 	"Total deleted" 	189
scalar NetworkMultiRadioIPv4.mobileHost[7].udpApp[0] 	"Mean delay" 	0.021334163278679
scalar NetworkMultiRadioIPv4.mobileHost[7].udpApp[0] 	"Min delay" 	0.000388699559
scalar NetworkMultiRadioIPv4.mobileHost[7].udpApp[0] 	"Max delay" 	0.096750521481
scalar NetworkMultiRadioIPv4.mobileHost[7].udpApp[0] 	"Deviation delay" 	0.017063385333846
scalar NetworkMultiRadioIPv4.mobileHost[7].udpApp[0] 	"TTL29 NumOfBurstsReceived" 	1
scalar NetworkMultiRadioIPv4.mobileHost[7].udpApp[0] 	"TTL29 NumOfPacketsReceived" 	636
scalar NetworkMultiRadioIPv4.mobileHost[7].udpApp[1] 	"Total send" 	0
scalar NetworkMultiRadioIPv4.mobileHost[7].udpApp[1] 	"Total received" 	0
scalar NetworkMultiRadioIPv4.mobileHost[7].udpApp[1] 	"Total deleted" 	0
scalar NetworkMultiRadioIPv4.mobileHost[7].udpApp[1] 	"Mean delay" 	0
scalar NetworkMultiRadioIPv4.mobileHost[7].udpApp[1] 	"Min delay" 	0
scalar NetworkMultiRadioIPv4.mobileHost[7].udpApp[1] 	"Max delay" 	0
scalar NetworkMultiRadioIPv4.mobileHost[7].udpApp[1] 	"Deviation delay" 	nan
scalar NetworkMultiRadioIPv4.mobileHost[7].udpApp[2] 	"Total send" 	929
scalar NetworkMultiRadioIPv4.mobileHost[7].udpApp[2] 	"Total received" 	0
scalar NetworkMultiRadioIPv4.mobileHost[7].udpApp[2] 	"Total deleted" 	0
scalar NetworkMultiRadioIPv4.mobileHost[7].udpApp[2] 	"Mean delay" 	0
scalar NetworkMultiRadioIPv4.mobileHost[7].udpApp[2] 	"Min delay" 	0
scalar NetworkMultiRadioIPv4.mobileHost[7].udpApp[2] 	"Max delay" 	0
scalar NetworkMultiRadioIPv4.mobileHost[7].udpApp[2] 	"Deviation delay" 	nan
scalar NetworkMultiRadioIPv4.mobileHost[7].pingApp 	"Pings sent" 	0
scalar NetworkMultiRadioIPv4.mobileHost[7].wlan[0].mgmt 	"packets received by queue" 	1485
scalar NetworkMultiRadioIPv4.mobileHost[7].wlan[0].mgmt 	"packets dropped by queue" 	0
scalar NetworkMultiRadioIPv4.mobileHost[7].wlan[0].mac 	"Mean Frame Length" 	222
scalar NetworkMultiRadioIPv4.mobileHost[7].wlan[0].mac 	"Frame Length stddev" 	0
scalar NetworkMultiRadioIPv4.mobileHost[7].wlan[0].mac 	"Sent Throughput" 	0.12760559702526
scalar NetworkMultiRadioIPv4.mobileHost[7].wlan[0].mac 	"CW medio" 	86.52654079088
scalar NetworkMultiRadioIPv4.mobileHost[7].wlan[0].mac 	"CW max" 	1023
scalar NetworkMultiRadioIPv4.mobileHost[7].wlan[0].mac 	"CW dev" 	152.03557253018
scalar NetworkMultiRadioIPv4.mobileHost[7].wlan[0].mac 	"Mean service time" 	0.0045798067686214
scalar NetworkMultiRadioIPv4.mobileHost[7].wlan[0].mac 	numSent 	1437
scalar NetworkMultiRadioIPv4.mobileHost[7].wlan[0].mac 	numSentWithoutRetry 	686
scalar NetworkMultiRadioIPv4.mobileHost[7].wlan[0].mac 	numReceived 	1137
scalar NetworkMultiRadioIPv4.mobileHost[7].wlan[0].mac 	numSelfReceived 	1485
scalar NetworkMultiRadioIPv4.mobileHost[7].wlan[0].mac 	numSentBroadcast 	-1
scalar NetworkMultiRadioIPv4.mobileHost[7].wlan[0].mac 	numReceivedBroadcast 	0
scalar NetworkMultiRadioIPv4.mobileHost[7].wlan[0].mac 	numReceivedOther 	9387
scalar NetworkMultiRadioIPv4.mobileHost[7].wlan[0].mac 	numCollision 	5845
scalar NetworkMultiRadioIPv4.mobileHost[7].wlan[0].mac 	numGivenUp 	48
scalar NetworkMultiRadioIPv4.mobileHost[7].wlan[0].mac 	numAckSend 	1137
scalar NetworkMultiRadioIPv4.mobileHost[7].wlan[0].mac 	numRetry 	1929
scalar NetworkMultiRadioIPv4.mobileHost[7].wlan[1].mgmt 	"packets received by queue" 	1421
scalar NetworkMultiRadioIPv4.mobileHost[7].wlan[1].mgmt 	"packets dropped by queue" 	0
scalar NetworkMultiRadioIPv4.mobileHost[7].wlan[1].mac 	"Mean Frame Length" 	222
scalar NetworkMultiRadioIPv4.mobileHost[7].wlan[1].mac 	"Frame Length stddev" 	0
scalar NetworkMultiRadioIPv4.mobileHost[7].wlan[1].mac 	"Sent Throughput" 	0.12103439717845
scalar NetworkMultiRadioIPv4.mobileHost[7].wlan[1].mac 	"CW medio" 	89.18912797282
scalar NetworkMultiRadioIPv4.mobileHost[7].wlan[1].mac 	"CW max" 	1018
scalar NetworkMultiRadioIPv4.mobileHost[7].wlan[1].mac 	"CW dev" 	161.60586010639
scalar NetworkMultiRadioIPv4.mobileHost[7].wlan[1].mac 	"Mean service time" 	0.0046445990438922
scalar NetworkMultiRadioIPv4.mobileHost[7].wlan[1].mac 	numSent 	1363
scalar NetworkMultiRadioIPv4.mobileHost[7].wlan[1].mac 	numSentWithoutRetry 	656
scalar NetworkMultiRadioIPv4.mobileHost[7].wlan[1].mac 	numReceived 	1125
scalar NetworkMultiRadioIPv4.mobileHost[7].wlan[1].mac 	numSelfReceived 	1421
scalar NetworkMultiRadioIPv4.mobileHost[7].wlan[1].mac 	numSentBroadcast 	-1
scalar NetworkMultiRadioIPv4.mobileHost[7].wlan[1].mac 	numReceivedBroadcast 	0
scalar NetworkMultiRadioIPv4.mobileHost[7].wlan[1].mac 	numReceivedOther 	9233
scalar NetworkMultiRadioIPv4.mobileHost[7].wlan[1].mac 	numCollision 	5592
scalar NetworkMultiRadioIPv4.mobileHost[7].wlan[1].mac 	numGivenUp 	57
scalar NetworkMultiRadioIPv4.mobileHost[7].wlan[1].mac 	numAckSend 	1125
scalar NetworkMultiRadioIPv4.mobileHost[7].wlan[1].mac 	numRetry 	1803
scalar NetworkMultiRadioIPv4.mobileHost[7].wlan[2].mgmt 	"packets received by queue" 	1448
scalar NetworkMultiRadioIPv4.mobileHost[7].wlan[2].mgmt 	"packets dropped by queue" 	0
scalar NetworkMultiRadioIPv4.mobileHost[7].wlan[2].mac 	"Mean Frame Length" 	222
scalar NetworkMultiRadioIPv4.mobileHost[7].wlan[2].mac 	"Frame Length stddev" 	0
scalar NetworkMultiRadioIPv4.mobileHost[7].wlan[2].mac 	"Sent Throughput" 	0.12431999710185
scalar NetworkMultiRadioIPv4.mobileHost[7].wlan[2].mac 	"CW medio" 	90.574509048903
scalar NetworkMultiRadioIPv4.mobileHost[7].wlan[2].mac 	"CW max" 	1019
scalar NetworkMultiRadioIPv4.mobileHost[7].wlan[2].mac 	"CW dev" 	165.53973779458
scalar NetworkMultiRadioIPv4.mobileHost[7].wlan[2].mac 	"Mean service time" 	0.004375557373835
scalar NetworkMultiRadioIPv4.mobileHost[7].wlan[2].mac 	numSent 	1400
scalar NetworkMultiRadioIPv4.mobileHost[7].wlan[2].mac 	numSentWithoutRetry 	699
scalar NetworkMultiRadioIPv4.mobileHost[7].wlan[2].mac 	numReceived 	1110
scalar NetworkMultiRadioIPv4.mobileHost[7].wlan[2].mac 	numSelfReceived 	1448
scalar NetworkMultiRadioIPv4.mobileHost[7].wlan[2].mac 	numSentBroadcast 	-1
scalar NetworkMultiRadioIPv4.mobileHost[7].wlan[2].mac 	numReceivedBroadcast 	0
scalar NetworkMultiRadioIPv4.mobileHost[7].wlan[2].mac 	numReceivedOther 	9525
scalar NetworkMultiRadioIPv4.mobileHost[7].wlan[2].mac 	numCollision 	5662
scalar NetworkMultiRadioIPv4.mobileHost[7].wlan[2].mac 	numGivenUp 	48
scalar NetworkMultiRadioIPv4.mobileHost[7].wlan[2].mac 	numAckSend 	1110
scalar NetworkMultiRadioIPv4.mobileHost[7].wlan[2].mac 	numRetry 	1774
scalar NetworkMultiRadioIPv4.mobileHost[7].manetRouting.manetmanager.manetroutingprotocol 	"Position X" 	150
scalar NetworkMultiRadioIPv4.mobileHost[7].manetRouting.manetmanager.manetroutingprotocol 	"Position Y" 	150
scalar NetworkMultiRadioIPv4.mobileHost[7].manetRouting.manetmanager.manetroutingprotocol 	lonelyCount 	0
scalar NetworkMultiRadioIPv4.mobileHost[7].manetRouting.manetmanager.manetroutingprotocol 	noNextHopCount 	0
scalar NetworkMultiRadioIPv4.mobileHost[8].udpApp[0] 	"Total send" 	0
scalar NetworkMultiRadioIPv4.mobileHost[8].udpApp[0] 	"Total received" 	0
scalar NetworkMultiRadioIPv4.mobileHost[8].udpApp[0] 	"Total deleted" 	0
scalar NetworkMultiRadioIPv4.mobileHost[8].udpApp[0] 	"Mean delay" 	0
scalar NetworkMultiRadioIPv4.mobileHost[8].udpApp[0] 	"Min delay" 	0
scalar NetworkMultiRadioIPv4.mobileHost[8].udpApp[0] 	"Max delay" 	0
scalar NetworkMultiRadioIPv4.mobileHost[8].udpApp[0] 	"Deviation delay" 	nan
scalar NetworkMultiRadioIPv4.mobileHost[8].udpApp[1] 	"Total send" 	0
scalar NetworkMultiRadioIPv4.mobileHost[8].udpApp[1] 	"Total received" 	0
scalar NetworkMultiRadioIPv4.mobileHost[8].udpApp[1] 	"Total deleted" 	0
scalar NetworkMultiRadioIPv4.mobileHost[8].udpApp[1] 	"Mean delay" 	0
scalar NetworkMultiRadioIPv4.mobileHost[8].udpApp[1] 	"Min delay" 	0
scalar NetworkMultiRadioIPv4.mobileHost[8].udpApp[1] 	"Max delay" 	0
scalar NetworkMultiRadioIPv4.mobileHost[8].udpApp[1] 	"Deviation delay" 	nan
scalar NetworkMultiRadioIPv4.mobileHost[8].udpApp[2] 	"Total send" 	0
scalar NetworkMultiRadioIPv4.mobileHost[8].udpApp[2] 	"Total received" 	0
scalar NetworkMultiRadioIPv4.mobileHost[8].udpApp[2] 	"Total deleted" 	0
scalar NetworkMultiRadioIPv4.mobileHost[8].udpApp[2] 	"Mean delay" 	0
scalar NetworkMultiRadioIPv4.mobileHost[8].udpApp[2] 	"Min delay" 	0
scalar NetworkMultiRadioIPv4.mobileHost[8].udpApp[2] 	"Max delay" 	0
scalar NetworkMultiRadioIPv4.mobileHost[8].udpApp[2] 	"Deviation delay" 	nan
scalar NetworkMultiRadioIPv4.mobileHost[8].pingApp 	"Pings sent" 	0
scalar NetworkMultiRadioIPv4.mobileHost[8].wlan[0].mgmt 	"packets received by queue" 	1180
scalar NetworkMultiRadioIPv4.mobileHost[8].wlan[0].mgmt 	"packets dropped by queue" 	0
scalar NetworkMultiRadioIPv4.mobileHost[8].wlan[0].mac 	"Mean Frame Length" 	222
scalar NetworkMultiRadioIPv4.mobileHost[8].wlan[0].mac 	"Frame Length stddev" 	0
scalar NetworkMultiRadioIPv4.mobileHost[8].wlan[0].mac 	"Sent Throughput" 	0.10309679759661
scalar NetworkMultiRadioIPv4.mobileHost[8].wlan[0].mac 	"CW medio" 	66.024019607843
scalar NetworkMultiRadioIPv4.mobileHost[8].wlan[0].mac 	"CW max" 	1012
scalar NetworkMultiRadioIPv4.mobileHost[8].wlan[0].mac 	"CW dev" 	128.10180520903
scalar NetworkMultiRadioIPv4.mobileHost[8].wlan[0].mac 	"Mean service time" 	0.0037974887287821
scalar NetworkMultiRadioIPv4.mobileHost[8].wlan[0].mac 	numSent 	1161
scalar NetworkMultiRadioIPv4.mobileHost[8].wlan[0].mac 	numSentWithoutRetry 	625
scalar NetworkMultiRadioIPv4.mobileHost[8].wlan[0].mac 	numReceived 	1180
scalar NetworkMultiRadioIPv4.mobileHost[8].wlan[0].mac 	numSelfReceived 	1180
scalar NetworkMultiRadioIPv4.mobileHost[8].wlan[0].mac 	numSentBroadcast 	-1
scalar NetworkMultiRadioIPv4.mobileHost[8].wlan[0].mac 	numReceivedBroadcast 	0
scalar NetworkMultiRadioIPv4.mobileHost[8].wlan[0].mac 	numReceivedOther 	12685
scalar NetworkMultiRadioIPv4.mobileHost[8].wlan[0].mac 	numCollision 	7349
scalar NetworkMultiRadioIPv4.mobileHost[8].wlan[0].mac 	numGivenUp 	19
scalar NetworkMultiRadioIPv4.mobileHost[8].wlan[0].mac 	numAckSend 	1180
scalar NetworkMultiRadioIPv4.mobileHost[8].wlan[0].mac 	numRetry 	1213
scalar NetworkMultiRadioIPv4.mobileHost[8].wlan[1].mgmt 	"packets received by queue" 	1109
scalar NetworkMultiRadioIPv4.mobileHost[8].wlan[1].mgmt 	"packets dropped by queue" 	0
scalar NetworkMultiRadioIPv4.mobileHost[8].wlan[1].mac 	"Mean Frame Length" 	222
scalar NetworkMultiRadioIPv4.mobileHost[8].wlan[1].mac 	"Frame Length stddev" 	0
scalar NetworkMultiRadioIPv4.mobileHost[8].wlan[1].mac 	"Sent Throughput" 	0.096259197756006
scalar NetworkMultiRadioIPv4.mobileHost[8].wlan[1].mac 	"CW medio" 	74.227074235808
scalar NetworkMultiRadioIPv4.mobileHost[8].wlan[1].mac 	"CW max" 	1021
scalar NetworkMultiRadioIPv4.mobileHost[8].wlan[1].mac 	"CW dev" 	142.66847435823
scalar NetworkMultiRadioIPv4.mobileHost[8].wlan[1].mac 	"Mean service time" 	0.0036224426535166
scalar NetworkMultiRadioIPv4.mobileHost[8].wlan[1].mac 	numSent 	1084
scalar NetworkMultiRadioIPv4.mobileHost[8].wlan[1].mac 	numSentWithoutRetry 	590
scalar NetworkMultiRadioIPv4.mobileHost[8].wlan[1].mac 	numReceived 	1103
scalar NetworkMultiRadioIPv4.mobileHost[8].wlan[1].mac 	numSelfReceived 	1109
scalar NetworkMultiRadioIPv4.mobileHost[8].wlan[1].mac 	numSentBroadcast 	-1
scalar NetworkMultiRadioIPv4.mobileHost[8].wlan[1].mac 	numReceivedBroadcast 	0
scalar NetworkMultiRadioIPv4.mobileHost[8].wlan[1].mac 	numReceivedOther 	12900
scalar NetworkMultiRadioIPv4.mobileHost[8].wlan[1].mac 	numCollision 	7054
scalar NetworkMultiRadioIPv4.mobileHost[8].wlan[1].mac 	numGivenUp 	24
scalar NetworkMultiRadioIPv4.mobileHost[8].wlan[1].mac 	numAckSend 	1103
scalar NetworkMultiRadioIPv4.mobileHost[8].wlan[1].mac 	numRetry 	1103
scalar NetworkMultiRadioIPv4.mobileHost[8].wlan[2].mgmt 	"packets received by queue" 	1119
scalar NetworkMultiRadioIPv4.mobileHost[8].wlan[2].mgmt 	"packets dropped by queue" 	0
scalar NetworkMultiRadioIPv4.mobileHost[8].wlan[2].mac 	"Mean Frame Length" 	222
scalar NetworkMultiRadioIPv4.mobileHost[8].wlan[2].mac 	"Frame Length stddev" 	0
scalar NetworkMultiRadioIPv4.mobileHost[8].wlan[2].mac 	"Sent Throughput" 	0.097679997722884
scalar NetworkMultiRadioIPv4.mobileHost[8].wlan[2].mac 	"CW medio" 	69.911145351823
scalar NetworkMultiRadioIPv4.mobileHost[8].wlan[2].mac 	"CW max" 	1017
scalar NetworkMultiRadioIPv4.mobileHost[8].wlan[2].mac 	"CW dev" 	135.48400471449
scalar NetworkMultiRadioIPv4.mobileHost[8].wlan[2].mac 	"Mean service time" 	0.0035989370197027
scalar NetworkMultiRadioIPv4.mobileHost[8].wlan[2].mac 	numSent 	1100
scalar NetworkMultiRadioIPv4.mobileHost[8].wlan[2].mac 	numSentWithoutRetry 	583
scalar NetworkMultiRadioIPv4.mobileHost[8].wlan[2].mac 	numReceived 	1154
scalar NetworkMultiRadioIPv4.mobileHost[8].wlan[2].mac 	numSelfReceived 	1119
scalar NetworkMultiRadioIPv4.mobileHost[8].wlan[2].mac 	numSentBroadcast 	-1
scalar NetworkMultiRadioIPv4.mobileHost[8].wlan[2].mac 	numReceivedBroadcast 	0
scalar NetworkMultiRadioIPv4.mobileHost[8].wlan[2].mac 	numReceivedOther 	12617
scalar NetworkMultiRadioIPv4.mobileHost[8].wlan[2].mac 	numCollision 	6998
scalar NetworkMultiRadioIPv4.mobileHost[8].wlan[2].mac 	numGivenUp 	19
scalar NetworkMultiRadioIPv4.mobileHost[8].wlan[2].mac 	numAckSend 	1154
scalar NetworkMultiRadioIPv4.mobileHost[8].wlan[2].mac 	numRetry 	1165
scalar NetworkMultiRadioIPv4.mobileHost[8].manetRouting.manetmanager.manetroutingprotocol 	"Position X" 	300
scalar NetworkMultiRadioIPv4.mobileHost[8].manetRouting.manetmanager.manetroutingprotocol 	"Position Y" 	150
scalar NetworkMultiRadioIPv4.mobileHost[8].manetRouting.manetmanager.manetroutingprotocol 	lonelyCount 	0
scalar NetworkMultiRadioIPv4.mobileHost[8].manetRouting.manetmanager.manetroutingprotocol 	noNextHopCount 	0
scalar NetworkMultiRadioIPv4.mobileHost[9].udpApp[0] 	"Total send" 	927
scalar NetworkMultiRadioIPv4.mobileHost[9].udpApp[0] 	"Total received" 	1728
scalar NetworkMultiRadioIPv4.mobileHost[9].udpApp[0] 	"Total deleted" 	88
scalar NetworkMultiRadioIPv4.mobileHost[9].udpApp[0] 	"Mean delay" 	0.0043101023978547
scalar NetworkMultiRadioIPv4.mobileHost[9].udpApp[0] 	"Min delay" 	9.05e-05
scalar NetworkMultiRadioIPv4.mobileHost[9].udpApp[0] 	"Max delay" 	0.044931441282
scalar NetworkMultiRadioIPv4.mobileHost[9].udpApp[0] 	"Deviation delay" 	0.0060928015026972
scalar NetworkMultiRadioIPv4.mobileHost[9].udpApp[0] 	"TTL30 NumOfBurstsReceived" 	1
scalar NetworkMultiRadioIPv4.mobileHost[9].udpApp[0] 	"TTL30 NumOfPacketsReceived" 	852
scalar NetworkMultiRadioIPv4.mobileHost[9].udpApp[0] 	"TTL31 NumOfBurstsReceived" 	1
scalar NetworkMultiRadioIPv4.mobileHost[9].udpApp[0] 	"TTL31 NumOfPacketsReceived" 	876
scalar NetworkMultiRadioIPv4.mobileHost[9].udpApp[1] 	"Total send" 	0
scalar NetworkMultiRadioIPv4.mobileHost[9].udpApp[1] 	"Total received" 	0
scalar NetworkMultiRadioIPv4.mobileHost[9].udpApp[1] 	"Total deleted" 	0
scalar NetworkMultiRadioIPv4.mobileHost[9].udpApp[1] 	"Mean delay" 	0
scalar NetworkMultiRadioIPv4.mobileHost[9].udpApp[1] 	"Min delay" 	0
scalar NetworkMultiRadioIPv4.mobileHost[9].udpApp[1] 	"Max delay" 	0
scalar NetworkMultiRadioIPv4.mobileHost[9].udpApp[1] 	"Deviation delay" 	nan
scalar NetworkMultiRadioIPv4.mobileHost[9].udpApp[2] 	"Total send" 	928
scalar NetworkMultiRadioIPv4.mobileHost[9].udpApp[2] 	"Total received" 	0
scalar NetworkMultiRadioIPv4.mobileHost[9].udpApp[2] 	"Total deleted" 	0
scalar NetworkMultiRadioIPv4.mobileHost[9].udpApp[2] 	"Mean delay" 	0
scalar NetworkMultiRadioIPv4.mobileHost[9].udpApp[2] 	"Min delay" 	0
scalar NetworkMultiRadioIPv4.mobileHost[9].udpApp[2] 	"Max delay" 	0
scalar NetworkMultiRadioIPv4.mobileHost[9].udpApp[2] 	"Deviation delay" 	nan
scalar NetworkMultiRadioIPv4.mobileHost[9].pingApp 	"Pings sent" 	0
scalar NetworkMultiRadioIPv4.mobileHost[9].wlan[0].mgmt 	"packets received by queue" 	1525
scalar NetworkMultiRadioIPv4.mobileHost[9].wlan[0].mgmt 	"packets dropped by queue" 	0
scalar NetworkMultiRadioIPv4.mobileHost[9].wlan[0].mac 	"Mean Frame Length" 	222
scalar NetworkMultiRadioIPv4.mobileHost[9].wlan[0].mac 	"Frame Length stddev" 	0
scalar NetworkMultiRadioIPv4.mobileHost[9].wlan[0].mac 	"Sent Throughput" 	0.13097999694659
scalar NetworkMultiRadioIPv4.mobileHost[9].wlan[0].mac 	"CW medio" 	86.627978216474
scalar NetworkMultiRadioIPv4.mobileHost[9].wlan[0].mac 	"CW max" 	1019
scalar NetworkMultiRadioIPv4.mobileHost[9].wlan[0].mac 	"CW dev" 	157.98438265156
scalar NetworkMultiRadioIPv4.mobileHost[9].wlan[0].mac 	"Mean service time" 	0.005194813320682
scalar NetworkMultiRadioIPv4.mobileHost[9].wlan[0].mac 	numSent 	1475
scalar NetworkMultiRadioIPv4.mobileHost[9].wlan[0].mac 	numSentWithoutRetry 	688
scalar NetworkMultiRadioIPv4.mobileHost[9].wlan[0].mac 	numReceived 	1470
scalar NetworkMultiRadioIPv4.mobileHost[9].wlan[0].mac 	numSelfReceived 	1525
scalar NetworkMultiRadioIPv4.mobileHost[9].wlan[0].mac 	numSentBroadcast 	-1
scalar NetworkMultiRadioIPv4.mobileHost[9].wlan[0].mac 	numReceivedBroadcast 	0
scalar NetworkMultiRadioIPv4.mobileHost[9].wlan[0].mac 	numReceivedOther 	11353
scalar NetworkMultiRadioIPv4.mobileHost[9].wlan[0].mac 	numCollision 	6316
scalar NetworkMultiRadioIPv4.mobileHost[9].wlan[0].mac 	numGivenUp 	49
scalar NetworkMultiRadioIPv4.mobileHost[9].wlan[0].mac 	numAckSend 	1470
scalar NetworkMultiRadioIPv4.mobileHost[9].wlan[0].mac 	numRetry 	1980
scalar NetworkMultiRadioIPv4.mobileHost[9].wlan[1].mgmt 	"packets received by queue" 	1482
scalar NetworkMultiRadioIPv4.mobileHost[9].wlan[1].mgmt 	"packets dropped by queue" 	0
scalar NetworkMultiRadioIPv4.mobileHost[9].wlan[1].mac 	"Mean Frame Length" 	222
scalar NetworkMultiRadioIPv4.mobileHost[9].wlan[1].mac 	"Frame Length stddev" 	0
scalar NetworkMultiRadioIPv4.mobileHost[9].wlan[1].mac 	"Sent Throughput" 	0.12600719706252
scalar NetworkMultiRadioIPv4.mobileHost[9].wlan[1].mac 	"CW medio" 	88.607142857143
scalar NetworkMultiRadioIPv4.mobileHost[9].wlan[1].mac 	"CW max" 	1020
scalar NetworkMultiRadioIPv4.mobileHost[9].wlan[1].mac 	"CW dev" 	158.01174579397
scalar NetworkMultiRadioIPv4.mobileHost[9].wlan[1].mac 	"Mean service time" 	0.0048826058284877
scalar NetworkMultiRadioIPv4.mobileHost[9].wlan[1].mac 	numSent 	1419
scalar NetworkMultiRadioIPv4.mobileHost[9].wlan[1].mac 	numSentWithoutRetry 	688
scalar NetworkMultiRadioIPv4.mobileHost[9].wlan[1].mac 	numReceived 	1477
scalar NetworkMultiRadioIPv4.mobileHost[9].wlan[1].mac 	numSelfReceived 	1482
scalar NetworkMultiRadioIPv4.mobileHost[9].wlan[1].mac 	numSentBroadcast 	-1
scalar NetworkMultiRadioIPv4.mobileHost[9].wlan[1].mac 	numReceivedBroadcast 	0
scalar NetworkMultiRadioIPv4.mobileHost[9].wlan[1].mac 	numReceivedOther 	11576
scalar NetworkMultiRadioIPv4.mobileHost[9].wlan[1].mac 	numCollision 	6001
scalar NetworkMultiRadioIPv4.mobileHost[9].wlan[1].mac 	numGivenUp 	63
scalar NetworkMultiRadioIPv4.mobileHost[9].wlan[1].mac 	numAckSend 	1477
scalar NetworkMultiRadioIPv4.mobileHost[9].wlan[1].mac 	numRetry 	1929
scalar NetworkMultiRadioIPv4.mobileHost[9].wlan[2].mgmt 	"packets received by queue" 	1413
scalar NetworkMultiRadioIPv4.mobileHost[9].wlan[2].mgmt 	"packets dropped by queue" 	0
scalar NetworkMultiRadioIPv4.mobileHost[9].wlan[2].mac 	"Mean Frame Length" 	222
scalar NetworkMultiRadioIPv4.mobileHost[9].wlan[2].mac 	"Frame Length stddev" 	0
scalar NetworkMultiRadioIPv4.mobileHost[9].wlan[2].mac 	"Sent Throughput" 	0.12165599716396
scalar NetworkMultiRadioIPv4.mobileHost[9].wlan[2].mac 	"CW medio" 	84.50293040293
scalar NetworkMultiRadioIPv4.mobileHost[9].wlan[2].mac 	"CW max" 	1011
scalar NetworkMultiRadioIPv4.mobileHost[9].wlan[2].mac 	"CW dev" 	147.98291582904
scalar NetworkMultiRadioIPv4.mobileHost[9].wlan[2].mac 	"Mean service time" 	0.0049611516319796
scalar NetworkMultiRadioIPv4.mobileHost[9].wlan[2].mac 	numSent 	1370
scalar NetworkMultiRadioIPv4.mobileHost[9].wlan[2].mac 	numSentWithoutRetry 	634
scalar NetworkMultiRadioIPv4.mobileHost[9].wlan[2].mac 	numReceived 	1434
scalar NetworkMultiRadioIPv4.mobileHost[9].wlan[2].mac 	numSelfReceived 	1413
scalar NetworkMultiRadioIPv4.mobileHost[9].wlan[2].mac 	numSentBroadcast 	-1
scalar NetworkMultiRadioIPv4.mobileHost[9].wlan[2].mac 	numReceivedBroadcast 	0
scalar NetworkMultiRadioIPv4.mobileHost[9].wlan[2].mac 	numReceivedOther 	11429
scalar NetworkMultiRadioIPv4.mobileHost[9].wlan[2].mac 	numCollision 	5940
scalar NetworkMultiRadioIPv4.mobileHost[9].wlan[2].mac 	numGivenUp 	43
scalar NetworkMultiRadioIPv4.mobileHost[9].wlan[2].mac 	numAckSend 	1434
scalar NetworkMultiRadioIPv4.mobileHost[9].wlan[2].mac 	numRetry 	1841
scalar NetworkMultiRadioIPv4.mobileHost[9].manetRouting.manetmanager.manetroutingprotocol 	"Position X" 	450
scalar NetworkMultiRadioIPv4.mobileHost[9].manetRouting.manetmanager.manetroutingprotocol 	"Position Y" 	150
scalar NetworkMultiRadioIPv4.mobileHost[9].manetRouting.manetmanager.manetroutingprotocol 	lonelyCount 	0
scalar NetworkMultiRadioIPv4.mobileHost[9].manetRouting.manetmanager.manetroutingprotocol 	noNextHopCount 	0
scalar NetworkMultiRadioIPv4.mobileHost[10].udpApp[0] 	"Total send" 	0
scalar NetworkMultiRadioIPv4.mobileHost[10].udpApp[0] 	"Total received" 	0
scalar NetworkMultiRadioIPv4.mobileHost[10].udpApp[0] 	"Total deleted" 	0
scalar NetworkMultiRadioIPv4.mobileHost[10].udpApp[0] 	"Mean delay" 	0
scalar NetworkMultiRadioIPv4.mobileHost[10].udpApp[0] 	"Min delay" 	0
scalar NetworkMultiRadioIPv4.mobileHost[10].udpApp[0] 	"Max delay" 	0
scalar NetworkMultiRadioIPv4.mobileHost[10].udpApp[0] 	"Deviation delay" 	nan
scalar NetworkMultiRadioIPv4.mobileHost[10].udpApp[1] 	"Total send" 	0
scalar NetworkMultiRadioIPv4.mobileHost[10].udpApp[1] 	"Total received" 	0
scalar NetworkMultiRadioIPv4.mobileHost[10].udpApp[1] 	"Total deleted" 	0
scalar NetworkMultiRadioIPv4.mobileHost[10].udpApp[1] 	"Mean delay" 	0
scalar NetworkMultiRadioIPv4.mobileHost[10].udpApp[1] 	"Min delay" 	0
scalar NetworkMultiRadioIPv4.mobileHost[10].udpApp[1] 	"Max delay" 	0
scalar NetworkMultiRadioIPv4.mobileHost[10].udpApp[1] 	"Deviation delay" 	nan
scalar NetworkMultiRadioIPv4.mobileHost[10].udpApp[2] 	"Total send" 	928
scalar NetworkMultiRadioIPv4.mobileHost[10].udpApp[2] 	"Total received" 	0
scalar NetworkMultiRadioIPv4.mobileHost[10].udpApp[2] 	"Total deleted" 	0
scalar NetworkMultiRadioIPv4.mobileHost[10].udpApp[2] 	"Mean delay" 	0
scalar NetworkMultiRadioIPv4.mobileHost[10].udpApp[2] 	"Min delay" 	0
scalar NetworkMultiRadioIPv4.mobileHost[10].udpApp[2] 	"Max delay" 	0
scalar NetworkMultiRadioIPv4.mobileHost[10].udpApp[2] 	"Deviation delay" 	nan
scalar NetworkMultiRadioIPv4.mobileHost[10].pingApp 	"Pings sent" 	0
scalar NetworkMultiRadioIPv4.mobileHost[10].wlan[0].mgmt 	"packets received by queue" 	1349
scalar NetworkMultiRadioIPv4.mobileHost[10].wlan[0].mgmt 	"packets dropped by queue" 	0
scalar NetworkMultiRadioIPv4.mobileHost[10].wlan[0].mac 	"Mean Frame Length" 	222
scalar NetworkMultiRadioIPv4.mobileHost[10].wlan[0].mac 	"Frame Length stddev" 	0
scalar NetworkMultiRadioIPv4.mobileHost[10].wlan[0].mac 	"Sent Throughput" 	0.11535119731093
scalar NetworkMultiRadioIPv4.mobileHost[10].wlan[0].mac 	"CW medio" 	85.246092330062
scalar NetworkMultiRadioIPv4.mobileHost[10].wlan[0].mac 	"CW max" 	1018
scalar NetworkMultiRadioIPv4.mobileHost[10].wlan[0].mac 	"CW dev" 	149.43889039336
scalar NetworkMultiRadioIPv4.mobileHost[10].wlan[0].mac 	"Mean service time" 	0.0047339211649138
scalar NetworkMultiRadioIPv4.mobileHost[10].wlan[0].mac 	numSent 	1299
scalar NetworkMultiRadioIPv4.mobileHost[10].wlan[0].mac 	numSentWithoutRetry 	616
scalar NetworkMultiRadioIPv4.mobileHost[10].wlan[0].mac 	numReceived 	1123
scalar NetworkMultiRadioIPv4.mobileHost[10].wlan[0].mac 	numSelfReceived 	1349
scalar NetworkMultiRadioIPv4.mobileHost[10].wlan[0].mac 	numSentBroadcast 	-1
scalar NetworkMultiRadioIPv4.mobileHost[10].wlan[0].mac 	numReceivedBroadcast 	0
scalar NetworkMultiRadioIPv4.mobileHost[10].wlan[0].mac 	numReceivedOther 	11967
scalar NetworkMultiRadioIPv4.mobileHost[10].wlan[0].mac 	numCollision 	6723
scalar NetworkMultiRadioIPv4.mobileHost[10].wlan[0].mac 	numGivenUp 	50
scalar NetworkMultiRadioIPv4.mobileHost[10].wlan[0].mac 	numAckSend 	1123
scalar NetworkMultiRadioIPv4.mobileHost[10].wlan[0].mac 	numRetry 	1832
scalar NetworkMultiRadioIPv4.mobileHost[10].wlan[1].mgmt 	"packets received by queue" 	1422
scalar NetworkMultiRadioIPv4.mobileHost[10].wlan[1].mgmt 	"packets dropped by queue" 	0
scalar NetworkMultiRadioIPv4.mobileHost[10].wlan[1].mac 	"Mean Frame Length" 	222
scalar NetworkMultiRadioIPv4.mobileHost[10].wlan[1].mac 	"Frame Length stddev" 	0
scalar NetworkMultiRadioIPv4.mobileHost[10].wlan[1].mac 	"Sent Throughput" 	0.12307679713083
scalar NetworkMultiRadioIPv4.mobileHost[10].wlan[1].mac 	"CW medio" 	77.947486871718
scalar NetworkMultiRadioIPv4.mobileHost[10].wlan[1].mac 	"CW max" 	1023
scalar NetworkMultiRadioIPv4.mobileHost[10].wlan[1].mac 	"CW dev" 	142.22659120252
scalar NetworkMultiRadioIPv4.mobileHost[10].wlan[1].mac 	"Mean service time" 	0.0040411731397446
scalar NetworkMultiRadioIPv4.mobileHost[10].wlan[1].mac 	numSent 	1386
scalar NetworkMultiRadioIPv4.mobileHost[10].wlan[1].mac 	numSentWithoutRetry 	655
scalar NetworkMultiRadioIPv4.mobileHost[10].wlan[1].mac 	numReceived 	1078
scalar NetworkMultiRadioIPv4.mobileHost[10].wlan[1].mac 	numSelfReceived 	1422
scalar NetworkMultiRadioIPv4.mobileHost[10].wlan[1].mac 	numSentBroadcast 	-1
scalar NetworkMultiRadioIPv4.mobileHost[10].wlan[1].mac 	numReceivedBroadcast 	0
scalar NetworkMultiRadioIPv4.mobileHost[10].wlan[1].mac 	numReceivedOther 	12016
scalar NetworkMultiRadioIPv4.mobileHost[10].wlan[1].mac 	numCollision 	6407
scalar NetworkMultiRadioIPv4.mobileHost[10].wlan[1].mac 	numGivenUp 	36
scalar NetworkMultiRadioIPv4.mobileHost[10].wlan[1].mac 	numAckSend 	1078
scalar NetworkMultiRadioIPv4.mobileHost[10].wlan[1].mac 	numRetry 	1758
scalar NetworkMultiRadioIPv4.mobileHost[10].wlan[2].mgmt 	"packets received by queue" 	1377
scalar NetworkMultiRadioIPv4.mobileHost[10].wlan[2].mgmt 	"packets dropped by queue" 	0
scalar NetworkMultiRadioIPv4.mobileHost[10].wlan[2].mac 	"Mean Frame Length" 	222
scalar NetworkMultiRadioIPv4.mobileHost[10].wlan[2].mac 	"Frame Length stddev" 	0
scalar NetworkMultiRadioIPv4.mobileHost[10].wlan[2].mac 	"Sent Throughput" 	0.11765999725711
scalar NetworkMultiRadioIPv4.mobileHost[10].wlan[2].mac 	"CW medio" 	92.774653312789
scalar NetworkMultiRadioIPv4.mobileHost[10].wlan[2].mac 	"CW max" 	1020
scalar NetworkMultiRadioIPv4.mobileHost[10].wlan[2].mac 	"CW dev" 	168.13649970377
scalar NetworkMultiRadioIPv4.mobileHost[10].wlan[2].mac 	"Mean service time" 	0.0051646385397057
scalar NetworkMultiRadioIPv4.mobileHost[10].wlan[2].mac 	numSent 	1325
scalar NetworkMultiRadioIPv4.mobileHost[10].wlan[2].mac 	numSentWithoutRetry 	670
scalar NetworkMultiRadioIPv4.mobileHost[10].wlan[2].mac 	numReceived 	1047
scalar NetworkMultiRadioIPv4.mobileHost[10].wlan[2].mac 	numSelfReceived 	1377
scalar NetworkMultiRadioIPv4.mobileHost[10].wlan[2].mac 	numSentBroadcast 	-1
scalar NetworkMultiRadioIPv4.mobileHost[10].wlan[2].mac 	numReceivedBroadcast 	0
scalar NetworkMultiRadioIPv4.mobileHost[10].wlan[2].mac 	numReceivedOther 	11809
scalar NetworkMultiRadioIPv4.mobileHost[10].wlan[2].mac 	numCollision 	6453
scalar NetworkMultiRadioIPv4.mobileHost[10].wlan[2].mac 	numGivenUp 	52
scalar NetworkMultiRadioIPv4.mobileHost[10].wlan[2].mac 	numAckSend 	1047
scalar NetworkMultiRadioIPv4.mobileHost[10].wlan[2].mac 	numRetry 	1704
scalar NetworkMultiRadioIPv4.mobileHost[10].manetRouting.manetmanager.manetroutingprotocol 	"Position X" 	600
scalar NetworkMultiRadioIPv4.mobileHost[10].manetRouting.manetmanager.manetroutingprotocol 	"Position Y" 	150
scalar NetworkMultiRadioIPv4.mobileHost[10].manetRouting.manetmanager.manetroutingprotocol 	lonelyCount 	0
scalar NetworkMultiRadioIPv4.mobileHost[10].manetRouting.manetmanager.manetroutingprotocol 	noNextHopCount 	0
scalar NetworkMultiRadioIPv4.mobileHost[11].udpApp[0] 	"Total send" 	928
scalar NetworkMultiRadioIPv4.mobileHost[11].udpApp[0] 	"Total received" 	1392
scalar NetworkMultiRadioIPv4.mobileHost[11].udpApp[0] 	"Total deleted" 	204
scalar NetworkMultiRadioIPv4.mobileHost[11].udpApp[0] 	"Mean delay" 	0.015778571228591
scalar NetworkMultiRadioIPv4.mobileHost[11].udpApp[0] 	"Min delay" 	0.000285707106
scalar NetworkMultiRadioIPv4.mobileHost[11].udpApp[0] 	"Max delay" 	0.106224653523
scalar NetworkMultiRadioIPv4.mobileHost[11].udpApp[0] 	"Deviation delay" 	0.015777108541506
scalar NetworkMultiRadioIPv4.mobileHost[11].udpApp[0] 	"TTL28 NumOfBurstsReceived" 	1
scalar NetworkMultiRadioIPv4.mobileHost[11].udpApp[0] 	"TTL28 NumOfPacketsReceived" 	598
scalar NetworkMultiRadioIPv4.mobileHost[11].udpApp[0] 	"TTL29 NumOfBurstsReceived" 	1
scalar NetworkMultiRadioIPv4.mobileHost[11].udpApp[0] 	"TTL29 NumOfPacketsReceived" 	794
scalar NetworkMultiRadioIPv4.mobileHost[11].udpApp[1] 	"Total send" 	928
scalar NetworkMultiRadioIPv4.mobileHost[11].udpApp[1] 	"Total received" 	0
scalar NetworkMultiRadioIPv4.mobileHost[11].udpApp[1] 	"Total deleted" 	0
scalar NetworkMultiRadioIPv4.mobileHost[11].udpApp[1] 	"Mean delay" 	0
scalar NetworkMultiRadioIPv4.mobileHost[11].udpApp[1] 	"Min delay" 	0
scalar NetworkMultiRadioIPv4.mobileHost[11].udpApp[1] 	"Max delay" 	0
scalar NetworkMultiRadioIPv4.mobileHost[11].udpApp[1] 	"Deviation delay" 	nan
scalar NetworkMultiRadioIPv4.mobileHost[11].udpApp[2] 	"Total send" 	0
scalar NetworkMultiRadioIPv4.mobileHost[11].udpApp[2] 	"Total received" 	0
scalar NetworkMultiRadioIPv4.mobileHost[11].udpApp[2] 	"Total deleted" 	0
scalar NetworkMultiRadioIPv4.mobileHost[11].udpApp[2] 	"Mean delay" 	0
scalar NetworkMultiRadioIPv4.mobileHost[11].udpApp[2] 	"Min delay" 	0
scalar NetworkMultiRadioIPv4.mobileHost[11].udpApp[2] 	"Max delay" 	0
scalar NetworkMultiRadioIPv4.mobileHost[11].udpApp[2] 	"Deviation delay" 	nan
scalar NetworkMultiRadioIPv4.mobileHost[11].pingApp 	"Pings sent" 	0
scalar NetworkMultiRadioIPv4.mobileHost[11].wlan[0].mgmt 	"packets received by queue" 	928
scalar NetworkMultiRadioIPv4.mobileHost[11].wlan[0].mgmt 	"packets dropped by queue" 	0
scalar NetworkMultiRadioIPv4.mobileHost[11].wlan[0].mac 	"Mean Frame Length" 	222
scalar NetworkMultiRadioIPv4.mobileHost[11].wlan[0].mac 	"Frame Length stddev" 	0
[...]
scalar NetworkMultiRadioIPv4.mobileHost[33].udpApp[2] 	"Total send" 	0
scalar NetworkMultiRadioIPv4.mobileHost[33].udpApp[2] 	"Total received" 	0
scalar NetworkMultiRadioIPv4.mobileHost[33].udpApp[2] 	"Total deleted" 	0
scalar NetworkMultiRadioIPv4.mobileHost[33].udpApp[2] 	"Mean delay" 	0
scalar NetworkMultiRadioIPv4.mobileHost[33].udpApp[2] 	"Min delay" 	0
scalar NetworkMultiRadioIPv4.mobileHost[33].udpApp[2] 	"Max delay" 	0
scalar NetworkMultiRadioIPv4.mobileHost[33].udpApp[2] 	"Deviation delay" 	nan
scalar NetworkMultiRadioIPv4.mobileHost[33].pingApp 	"Pings sent" 	0
scalar NetworkMultiRadioIPv4.mobileHost[33].wlan[0].mgmt 	"packets received by queue" 	334
scalar NetworkMultiRadioIPv4.mobileHost[33].wlan[0].mgmt 	"packets dropped by queue" 	0
scalar NetworkMultiRadioIPv4.mobileHost[33].wlan[0].mac 	"Mean Frame Length" 	222
scalar NetworkMultiRadioIPv4.mobileHost[33].wlan[0].mac 	"Frame Length stddev" 	0
scalar NetworkMultiRadioIPv4.mobileHost[33].wlan[0].mac 	"Sent Throughput" 	0.029392799314795
scalar NetworkMultiRadioIPv4.mobileHost[33].wlan[0].mac 	"CW medio" 	77.736961451247
scalar NetworkMultiRadioIPv4.mobileHost[33].wlan[0].mac 	"CW max" 	936
scalar NetworkMultiRadioIPv4.mobileHost[33].wlan[0].mac 	"CW dev" 	129.52091343528
scalar NetworkMultiRadioIPv4.mobileHost[33].wlan[0].mac 	"Mean service time" 	0.0022760746074048
scalar NetworkMultiRadioIPv4.mobileHost[33].wlan[0].mac 	numSent 	331
scalar NetworkMultiRadioIPv4.mobileHost[33].wlan[0].mac 	numSentWithoutRetry 	165
scalar NetworkMultiRadioIPv4.mobileHost[33].wlan[0].mac 	numReceived 	0
scalar NetworkMultiRadioIPv4.mobileHost[33].wlan[0].mac 	numSelfReceived 	334
scalar NetworkMultiRadioIPv4.mobileHost[33].wlan[0].mac 	numSentBroadcast 	-1
scalar NetworkMultiRadioIPv4.mobileHost[33].wlan[0].mac 	numReceivedBroadcast 	0
scalar NetworkMultiRadioIPv4.mobileHost[33].wlan[0].mac 	numReceivedOther 	9068
scalar NetworkMultiRadioIPv4.mobileHost[33].wlan[0].mac 	numCollision 	4882
scalar NetworkMultiRadioIPv4.mobileHost[33].wlan[0].mac 	numGivenUp 	3
scalar NetworkMultiRadioIPv4.mobileHost[33].wlan[0].mac 	numAckSend 	0
scalar NetworkMultiRadioIPv4.mobileHost[33].wlan[0].mac 	numRetry 	343
scalar NetworkMultiRadioIPv4.mobileHost[33].wlan[1].mgmt 	"packets received by queue" 	279
scalar NetworkMultiRadioIPv4.mobileHost[33].wlan[1].mgmt 	"packets dropped by queue" 	0
scalar NetworkMultiRadioIPv4.mobileHost[33].wlan[1].mac 	"Mean Frame Length" 	222
scalar NetworkMultiRadioIPv4.mobileHost[33].wlan[1].mac 	"Frame Length stddev" 	0
scalar NetworkMultiRadioIPv4.mobileHost[33].wlan[1].mac 	"Sent Throughput" 	0.024419999430721
scalar NetworkMultiRadioIPv4.mobileHost[33].wlan[1].mac 	"CW medio" 	74.133704735376
scalar NetworkMultiRadioIPv4.mobileHost[33].wlan[1].mac 	"CW max" 	965
scalar NetworkMultiRadioIPv4.mobileHost[33].wlan[1].mac 	"CW dev" 	135.76511492519
scalar NetworkMultiRadioIPv4.mobileHost[33].wlan[1].mac 	"Mean service time" 	0.0021055451576036
scalar NetworkMultiRadioIPv4.mobileHost[33].wlan[1].mac 	numSent 	275
scalar NetworkMultiRadioIPv4.mobileHost[33].wlan[1].mac 	numSentWithoutRetry 	153
scalar NetworkMultiRadioIPv4.mobileHost[33].wlan[1].mac 	numReceived 	0
scalar NetworkMultiRadioIPv4.mobileHost[33].wlan[1].mac 	numSelfReceived 	279
scalar NetworkMultiRadioIPv4.mobileHost[33].wlan[1].mac 	numSentBroadcast 	-1
scalar NetworkMultiRadioIPv4.mobileHost[33].wlan[1].mac 	numReceivedBroadcast 	0
scalar NetworkMultiRadioIPv4.mobileHost[33].wlan[1].mac 	numReceivedOther 	9133
scalar NetworkMultiRadioIPv4.mobileHost[33].wlan[1].mac 	numCollision 	4741
scalar NetworkMultiRadioIPv4.mobileHost[33].wlan[1].mac 	numGivenUp 	4
scalar NetworkMultiRadioIPv4.mobileHost[33].wlan[1].mac 	numAckSend 	0
scalar NetworkMultiRadioIPv4.mobileHost[33].wlan[1].mac 	numRetry 	264
scalar NetworkMultiRadioIPv4.mobileHost[33].wlan[2].mgmt 	"packets received by queue" 	315
scalar NetworkMultiRadioIPv4.mobileHost[33].wlan[2].mgmt 	"packets dropped by queue" 	0
scalar NetworkMultiRadioIPv4.mobileHost[33].wlan[2].mac 	"Mean Frame Length" 	222
scalar NetworkMultiRadioIPv4.mobileHost[33].wlan[2].mac 	"Frame Length stddev" 	0
scalar NetworkMultiRadioIPv4.mobileHost[33].wlan[2].mac 	"Sent Throughput" 	0.027705599354127
scalar NetworkMultiRadioIPv4.mobileHost[33].wlan[2].mac 	"CW medio" 	73.855477855478
scalar NetworkMultiRadioIPv4.mobileHost[33].wlan[2].mac 	"CW max" 	969
scalar NetworkMultiRadioIPv4.mobileHost[33].wlan[2].mac 	"CW dev" 	132.34709957337
scalar NetworkMultiRadioIPv4.mobileHost[33].wlan[2].mac 	"Mean service time" 	0.0022289838138942
scalar NetworkMultiRadioIPv4.mobileHost[33].wlan[2].mac 	numSent 	312
scalar NetworkMultiRadioIPv4.mobileHost[33].wlan[2].mac 	numSentWithoutRetry 	158
scalar NetworkMultiRadioIPv4.mobileHost[33].wlan[2].mac 	numReceived 	0
scalar NetworkMultiRadioIPv4.mobileHost[33].wlan[2].mac 	numSelfReceived 	315
scalar NetworkMultiRadioIPv4.mobileHost[33].wlan[2].mac 	numSentBroadcast 	-1
scalar NetworkMultiRadioIPv4.mobileHost[33].wlan[2].mac 	numReceivedBroadcast 	0
scalar NetworkMultiRadioIPv4.mobileHost[33].wlan[2].mac 	numReceivedOther 	8842
scalar NetworkMultiRadioIPv4.mobileHost[33].wlan[2].mac 	numCollision 	4553
scalar NetworkMultiRadioIPv4.mobileHost[33].wlan[2].mac 	numGivenUp 	2
scalar NetworkMultiRadioIPv4.mobileHost[33].wlan[2].mac 	numAckSend 	0
scalar NetworkMultiRadioIPv4.mobileHost[33].wlan[2].mac 	numRetry 	320
scalar NetworkMultiRadioIPv4.mobileHost[33].manetRouting.manetmanager.manetroutingprotocol 	"Position X" 	450
scalar NetworkMultiRadioIPv4.mobileHost[33].manetRouting.manetmanager.manetroutingprotocol 	"Position Y" 	750
scalar NetworkMultiRadioIPv4.mobileHost[33].manetRouting.manetmanager.manetroutingprotocol 	lonelyCount 	0
scalar NetworkMultiRadioIPv4.mobileHost[33].manetRouting.manetmanager.manetroutingprotocol 	noNextHopCount 	0
scalar NetworkMultiRadioIPv4.mobileHost[34].udpApp[0] 	"Total send" 	0
scalar NetworkMultiRadioIPv4.mobileHost[34].udpApp[0] 	"Total received" 	1794
scalar NetworkMultiRadioIPv4.mobileHost[34].udpApp[0] 	"Total deleted" 	24
scalar NetworkMultiRadioIPv4.mobileHost[34].udpApp[0] 	"Mean delay" 	0.0020499254452302
scalar NetworkMultiRadioIPv4.mobileHost[34].udpApp[0] 	"Min delay" 	9.05e-05
scalar NetworkMultiRadioIPv4.mobileHost[34].udpApp[0] 	"Max delay" 	0.035396964605
scalar NetworkMultiRadioIPv4.mobileHost[34].udpApp[0] 	"Deviation delay" 	0.0038047847065298
scalar NetworkMultiRadioIPv4.mobileHost[34].udpApp[0] 	"TTL31 NumOfBurstsReceived" 	2
scalar NetworkMultiRadioIPv4.mobileHost[34].udpApp[0] 	"TTL31 NumOfPacketsReceived" 	1794
scalar NetworkMultiRadioIPv4.mobileHost[34].udpApp[1] 	"Total send" 	0
scalar NetworkMultiRadioIPv4.mobileHost[34].udpApp[1] 	"Total received" 	0
scalar NetworkMultiRadioIPv4.mobileHost[34].udpApp[1] 	"Total deleted" 	0
scalar NetworkMultiRadioIPv4.mobileHost[34].udpApp[1] 	"Mean delay" 	0
scalar NetworkMultiRadioIPv4.mobileHost[34].udpApp[1] 	"Min delay" 	0
scalar NetworkMultiRadioIPv4.mobileHost[34].udpApp[1] 	"Max delay" 	0
scalar NetworkMultiRadioIPv4.mobileHost[34].udpApp[1] 	"Deviation delay" 	nan
scalar NetworkMultiRadioIPv4.mobileHost[34].udpApp[2] 	"Total send" 	929
scalar NetworkMultiRadioIPv4.mobileHost[34].udpApp[2] 	"Total received" 	0
scalar NetworkMultiRadioIPv4.mobileHost[34].udpApp[2] 	"Total deleted" 	0
scalar NetworkMultiRadioIPv4.mobileHost[34].udpApp[2] 	"Mean delay" 	0
scalar NetworkMultiRadioIPv4.mobileHost[34].udpApp[2] 	"Min delay" 	0
scalar NetworkMultiRadioIPv4.mobileHost[34].udpApp[2] 	"Max delay" 	0
scalar NetworkMultiRadioIPv4.mobileHost[34].udpApp[2] 	"Deviation delay" 	nan
scalar NetworkMultiRadioIPv4.mobileHost[34].pingApp 	"Pings sent" 	0
scalar NetworkMultiRadioIPv4.mobileHost[34].wlan[0].mgmt 	"packets received by queue" 	568
scalar NetworkMultiRadioIPv4.mobileHost[34].wlan[0].mgmt 	"packets dropped by queue" 	0
scalar NetworkMultiRadioIPv4.mobileHost[34].wlan[0].mac 	"Mean Frame Length" 	222
scalar NetworkMultiRadioIPv4.mobileHost[34].wlan[0].mac 	"Frame Length stddev" 	0
scalar NetworkMultiRadioIPv4.mobileHost[34].wlan[0].mac 	"Sent Throughput" 	0.049994398834531
scalar NetworkMultiRadioIPv4.mobileHost[34].wlan[0].mac 	"CW medio" 	69.879708383961
scalar NetworkMultiRadioIPv4.mobileHost[34].wlan[0].mac 	"CW max" 	989
scalar NetworkMultiRadioIPv4.mobileHost[34].wlan[0].mac 	"CW dev" 	120.91170840777
scalar NetworkMultiRadioIPv4.mobileHost[34].wlan[0].mac 	"Mean service time" 	0.0024106854739414
scalar NetworkMultiRadioIPv4.mobileHost[34].wlan[0].mac 	numSent 	563
scalar NetworkMultiRadioIPv4.mobileHost[34].wlan[0].mac 	numSentWithoutRetry 	293
scalar NetworkMultiRadioIPv4.mobileHost[34].wlan[0].mac 	numReceived 	913
scalar NetworkMultiRadioIPv4.mobileHost[34].wlan[0].mac 	numSelfReceived 	568
scalar NetworkMultiRadioIPv4.mobileHost[34].wlan[0].mac 	numSentBroadcast 	-1
scalar NetworkMultiRadioIPv4.mobileHost[34].wlan[0].mac 	numReceivedBroadcast 	0
scalar NetworkMultiRadioIPv4.mobileHost[34].wlan[0].mac 	numReceivedOther 	4315
scalar NetworkMultiRadioIPv4.mobileHost[34].wlan[0].mac 	numCollision 	3833
scalar NetworkMultiRadioIPv4.mobileHost[34].wlan[0].mac 	numGivenUp 	5
scalar NetworkMultiRadioIPv4.mobileHost[34].wlan[0].mac 	numAckSend 	913
scalar NetworkMultiRadioIPv4.mobileHost[34].wlan[0].mac 	numRetry 	579
scalar NetworkMultiRadioIPv4.mobileHost[34].wlan[1].mgmt 	"packets received by queue" 	622
scalar NetworkMultiRadioIPv4.mobileHost[34].wlan[1].mgmt 	"packets dropped by queue" 	0
scalar NetworkMultiRadioIPv4.mobileHost[34].wlan[1].mac 	"Mean Frame Length" 	222
scalar NetworkMultiRadioIPv4.mobileHost[34].wlan[1].mac 	"Frame Length stddev" 	0
scalar NetworkMultiRadioIPv4.mobileHost[34].wlan[1].mac 	"Sent Throughput" 	0.054878398720675
scalar NetworkMultiRadioIPv4.mobileHost[34].wlan[1].mac 	"CW medio" 	74.27251995439
scalar NetworkMultiRadioIPv4.mobileHost[34].wlan[1].mac 	"CW max" 	998
scalar NetworkMultiRadioIPv4.mobileHost[34].wlan[1].mac 	"CW dev" 	130.440253244
scalar NetworkMultiRadioIPv4.mobileHost[34].wlan[1].mac 	"Mean service time" 	0.002362661319068
scalar NetworkMultiRadioIPv4.mobileHost[34].wlan[1].mac 	numSent 	618
scalar NetworkMultiRadioIPv4.mobileHost[34].wlan[1].mac 	numSentWithoutRetry 	309
scalar NetworkMultiRadioIPv4.mobileHost[34].wlan[1].mac 	numReceived 	868
scalar NetworkMultiRadioIPv4.mobileHost[34].wlan[1].mac 	numSelfReceived 	622
scalar NetworkMultiRadioIPv4.mobileHost[34].wlan[1].mac 	numSentBroadcast 	-1
scalar NetworkMultiRadioIPv4.mobileHost[34].wlan[1].mac 	numReceivedBroadcast 	0
scalar NetworkMultiRadioIPv4.mobileHost[34].wlan[1].mac 	numReceivedOther 	4138
scalar NetworkMultiRadioIPv4.mobileHost[34].wlan[1].mac 	numCollision 	3537
scalar NetworkMultiRadioIPv4.mobileHost[34].wlan[1].mac 	numGivenUp 	4
scalar NetworkMultiRadioIPv4.mobileHost[34].wlan[1].mac 	numAckSend 	868
scalar NetworkMultiRadioIPv4.mobileHost[34].wlan[1].mac 	numRetry 	623
scalar NetworkMultiRadioIPv4.mobileHost[34].wlan[2].mgmt 	"packets received by queue" 	559
scalar NetworkMultiRadioIPv4.mobileHost[34].wlan[2].mgmt 	"packets dropped by queue" 	0
scalar NetworkMultiRadioIPv4.mobileHost[34].wlan[2].mac 	"Mean Frame Length" 	222
scalar NetworkMultiRadioIPv4.mobileHost[34].wlan[2].mac 	"Frame Length stddev" 	0
scalar NetworkMultiRadioIPv4.mobileHost[34].wlan[2].mac 	"Sent Throughput" 	0.049195198853162
scalar NetworkMultiRadioIPv4.mobileHost[34].wlan[2].mac 	"CW medio" 	71.235941320293
scalar NetworkMultiRadioIPv4.mobileHost[34].wlan[2].mac 	"CW max" 	884
scalar NetworkMultiRadioIPv4.mobileHost[34].wlan[2].mac 	"CW dev" 	118.24907566809
scalar NetworkMultiRadioIPv4.mobileHost[34].wlan[2].mac 	"Mean service time" 	0.0022592074809422
scalar NetworkMultiRadioIPv4.mobileHost[34].wlan[2].mac 	numSent 	554
scalar NetworkMultiRadioIPv4.mobileHost[34].wlan[2].mac 	numSentWithoutRetry 	279
scalar NetworkMultiRadioIPv4.mobileHost[34].wlan[2].mac 	numReceived 	857
scalar NetworkMultiRadioIPv4.mobileHost[34].wlan[2].mac 	numSelfReceived 	559
scalar NetworkMultiRadioIPv4.mobileHost[34].wlan[2].mac 	numSentBroadcast 	-1
scalar NetworkMultiRadioIPv4.mobileHost[34].wlan[2].mac 	numReceivedBroadcast 	0
scalar NetworkMultiRadioIPv4.mobileHost[34].wlan[2].mac 	numReceivedOther 	4224
scalar NetworkMultiRadioIPv4.mobileHost[34].wlan[2].mac 	numCollision 	3493
scalar NetworkMultiRadioIPv4.mobileHost[34].wlan[2].mac 	numGivenUp 	5
scalar NetworkMultiRadioIPv4.mobileHost[34].wlan[2].mac 	numAckSend 	857
scalar NetworkMultiRadioIPv4.mobileHost[34].wlan[2].mac 	numRetry 	609
scalar NetworkMultiRadioIPv4.mobileHost[34].manetRouting.manetmanager.manetroutingprotocol 	"Position X" 	600
scalar NetworkMultiRadioIPv4.mobileHost[34].manetRouting.manetmanager.manetroutingprotocol 	"Position Y" 	750
scalar NetworkMultiRadioIPv4.mobileHost[34].manetRouting.manetmanager.manetroutingprotocol 	lonelyCount 	0
scalar NetworkMultiRadioIPv4.mobileHost[34].manetRouting.manetmanager.manetroutingprotocol 	noNextHopCount 	0
scalar NetworkMultiRadioIPv4.mobileHost[35].udpApp[0] 	"Total send" 	0
scalar NetworkMultiRadioIPv4.mobileHost[35].udpApp[0] 	"Total received" 	1388
scalar NetworkMultiRadioIPv4.mobileHost[35].udpApp[0] 	"Total deleted" 	266
scalar NetworkMultiRadioIPv4.mobileHost[35].udpApp[0] 	"Mean delay" 	0.014254999116867
scalar NetworkMultiRadioIPv4.mobileHost[35].udpApp[0] 	"Min delay" 	0.000271707106
scalar NetworkMultiRadioIPv4.mobileHost[35].udpApp[0] 	"Max delay" 	0.088542815386
scalar NetworkMultiRadioIPv4.mobileHost[35].udpApp[0] 	"Deviation delay" 	0.013336601175724
scalar NetworkMultiRadioIPv4.mobileHost[35].udpApp[0] 	"TTL29 NumOfBurstsReceived" 	2
scalar NetworkMultiRadioIPv4.mobileHost[35].udpApp[0] 	"TTL29 NumOfPacketsReceived" 	1388
scalar NetworkMultiRadioIPv4.mobileHost[35].udpApp[1] 	"Total send" 	925
scalar NetworkMultiRadioIPv4.mobileHost[35].udpApp[1] 	"Total received" 	0
scalar NetworkMultiRadioIPv4.mobileHost[35].udpApp[1] 	"Total deleted" 	0
scalar NetworkMultiRadioIPv4.mobileHost[35].udpApp[1] 	"Mean delay" 	0
scalar NetworkMultiRadioIPv4.mobileHost[35].udpApp[1] 	"Min delay" 	0
scalar NetworkMultiRadioIPv4.mobileHost[35].udpApp[1] 	"Max delay" 	0
scalar NetworkMultiRadioIPv4.mobileHost[35].udpApp[1] 	"Deviation delay" 	nan
scalar NetworkMultiRadioIPv4.mobileHost[35].udpApp[2] 	"Total send" 	0
scalar NetworkMultiRadioIPv4.mobileHost[35].udpApp[2] 	"Total received" 	0
scalar NetworkMultiRadioIPv4.mobileHost[35].udpApp[2] 	"Total deleted" 	0
scalar NetworkMultiRadioIPv4.mobileHost[35].udpApp[2] 	"Mean delay" 	0
scalar NetworkMultiRadioIPv4.mobileHost[35].udpApp[2] 	"Min delay" 	0
scalar NetworkMultiRadioIPv4.mobileHost[35].udpApp[2] 	"Max delay" 	0
scalar NetworkMultiRadioIPv4.mobileHost[35].udpApp[2] 	"Deviation delay" 	nan
scalar NetworkMultiRadioIPv4.mobileHost[35].pingApp 	"Pings sent" 	0
scalar NetworkMultiRadioIPv4.mobileHost[35].wlan[0].mgmt 	"packets received by queue" 	333
scalar NetworkMultiRadioIPv4.mobileHost[35].wlan[0].mgmt 	"packets dropped by queue" 	0
scalar NetworkMultiRadioIPv4.mobileHost[35].wlan[0].mac 	"Mean Frame Length" 	222
scalar NetworkMultiRadioIPv4.mobileHost[35].wlan[0].mac 	"Frame Length stddev" 	0
scalar NetworkMultiRadioIPv4.mobileHost[35].wlan[0].mac 	"Sent Throughput" 	0.029303999316865
scalar NetworkMultiRadioIPv4.mobileHost[35].wlan[0].mac 	"CW medio" 	86.93932038835
scalar NetworkMultiRadioIPv4.mobileHost[35].wlan[0].mac 	"CW max" 	951
scalar NetworkMultiRadioIPv4.mobileHost[35].wlan[0].mac 	"CW dev" 	135.17444332779
scalar NetworkMultiRadioIPv4.mobileHost[35].wlan[0].mac 	"Mean service time" 	0.0018075292858848
scalar NetworkMultiRadioIPv4.mobileHost[35].wlan[0].mac 	numSent 	330
scalar NetworkMultiRadioIPv4.mobileHost[35].wlan[0].mac 	numSentWithoutRetry 	156
scalar NetworkMultiRadioIPv4.mobileHost[35].wlan[0].mac 	numReceived 	550
scalar NetworkMultiRadioIPv4.mobileHost[35].wlan[0].mac 	numSelfReceived 	333
scalar NetworkMultiRadioIPv4.mobileHost[35].wlan[0].mac 	numSentBroadcast 	-1
scalar NetworkMultiRadioIPv4.mobileHost[35].wlan[0].mac 	numReceivedBroadcast 	0
scalar NetworkMultiRadioIPv4.mobileHost[35].wlan[0].mac 	numReceivedOther 	2670
scalar NetworkMultiRadioIPv4.mobileHost[35].wlan[0].mac 	numCollision 	1995
scalar NetworkMultiRadioIPv4.mobileHost[35].wlan[0].mac 	numGivenUp 	3
scalar NetworkMultiRadioIPv4.mobileHost[35].wlan[0].mac 	numAckSend 	550
scalar NetworkMultiRadioIPv4.mobileHost[35].wlan[0].mac 	numRetry 	369
scalar NetworkMultiRadioIPv4.mobileHost[35].wlan[1].mgmt 	"packets received by queue" 	281
scalar NetworkMultiRadioIPv4.mobileHost[35].wlan[1].mgmt 	"packets dropped by queue" 	0
scalar NetworkMultiRadioIPv4.mobileHost[35].wlan[1].mac 	"Mean Frame Length" 	222
scalar NetworkMultiRadioIPv4.mobileHost[35].wlan[1].mac 	"Frame Length stddev" 	0
scalar NetworkMultiRadioIPv4.mobileHost[35].wlan[1].mac 	"Sent Throughput" 	0.024686399424511
scalar NetworkMultiRadioIPv4.mobileHost[35].wlan[1].mac 	"CW medio" 	98.686930091185
scalar NetworkMultiRadioIPv4.mobileHost[35].wlan[1].mac 	"CW max" 	997
scalar NetworkMultiRadioIPv4.mobileHost[35].wlan[1].mac 	"CW dev" 	165.35323196889
scalar NetworkMultiRadioIPv4.mobileHost[35].wlan[1].mac 	"Mean service time" 	0.001763683385018
scalar NetworkMultiRadioIPv4.mobileHost[35].wlan[1].mac 	numSent 	278
scalar NetworkMultiRadioIPv4.mobileHost[35].wlan[1].mac 	numSentWithoutRetry 	143
scalar NetworkMultiRadioIPv4.mobileHost[35].wlan[1].mac 	numReceived 	556
scalar NetworkMultiRadioIPv4.mobileHost[35].wlan[1].mac 	numSelfReceived 	281
scalar NetworkMultiRadioIPv4.mobileHost[35].wlan[1].mac 	numSentBroadcast 	-1
scalar NetworkMultiRadioIPv4.mobileHost[35].wlan[1].mac 	numReceivedBroadcast 	0
scalar NetworkMultiRadioIPv4.mobileHost[35].wlan[1].mac 	numReceivedOther 	2735
scalar NetworkMultiRadioIPv4.mobileHost[35].wlan[1].mac 	numCollision 	1987
scalar NetworkMultiRadioIPv4.mobileHost[35].wlan[1].mac 	numGivenUp 	3
scalar NetworkMultiRadioIPv4.mobileHost[35].wlan[1].mac 	numAckSend 	556
scalar NetworkMultiRadioIPv4.mobileHost[35].wlan[1].mac 	numRetry 	296
scalar NetworkMultiRadioIPv4.mobileHost[35].wlan[2].mgmt 	"packets received by queue" 	295
scalar NetworkMultiRadioIPv4.mobileHost[35].wlan[2].mgmt 	"packets dropped by queue" 	0
scalar NetworkMultiRadioIPv4.mobileHost[35].wlan[2].mac 	"Mean Frame Length" 	222
scalar NetworkMultiRadioIPv4.mobileHost[35].wlan[2].mac 	"Frame Length stddev" 	0
scalar NetworkMultiRadioIPv4.mobileHost[35].wlan[2].mac 	"Sent Throughput" 	0.02557439940381
scalar NetworkMultiRadioIPv4.mobileHost[35].wlan[2].mac 	"CW medio" 	109.40751445087
scalar NetworkMultiRadioIPv4.mobileHost[35].wlan[2].mac 	"CW max" 	1022
scalar NetworkMultiRadioIPv4.mobileHost[35].wlan[2].mac 	"CW dev" 	185.41015669116
scalar NetworkMultiRadioIPv4.mobileHost[35].wlan[2].mac 	"Mean service time" 	0.0017514590344306
scalar NetworkMultiRadioIPv4.mobileHost[35].wlan[2].mac 	numSent 	288
scalar NetworkMultiRadioIPv4.mobileHost[35].wlan[2].mac 	numSentWithoutRetry 	146
scalar NetworkMultiRadioIPv4.mobileHost[35].wlan[2].mac 	numReceived 	548
scalar NetworkMultiRadioIPv4.mobileHost[35].wlan[2].mac 	numSelfReceived 	295
scalar NetworkMultiRadioIPv4.mobileHost[35].wlan[2].mac 	numSentBroadcast 	-1
scalar NetworkMultiRadioIPv4.mobileHost[35].wlan[2].mac 	numReceivedBroadcast 	0
scalar NetworkMultiRadioIPv4.mobileHost[35].wlan[2].mac 	numReceivedOther 	2616
scalar NetworkMultiRadioIPv4.mobileHost[35].wlan[2].mac 	numCollision 	2013
scalar NetworkMultiRadioIPv4.mobileHost[35].wlan[2].mac 	numGivenUp 	7
scalar NetworkMultiRadioIPv4.mobileHost[35].wlan[2].mac 	numAckSend 	548
scalar NetworkMultiRadioIPv4.mobileHost[35].wlan[2].mac 	numRetry 	312
scalar NetworkMultiRadioIPv4.mobileHost[35].manetRouting.manetmanager.manetroutingprotocol 	"Position X" 	750
scalar NetworkMultiRadioIPv4.mobileHost[35].manetRouting.manetmanager.manetroutingprotocol 	"Position Y" 	750
scalar NetworkMultiRadioIPv4.mobileHost[35].manetRouting.manetmanager.manetroutingprotocol 	lonelyCount 	0
scalar NetworkMultiRadioIPv4.mobileHost[35].manetRouting.manetmanager.manetroutingprotocol 	noNextHopCount 	0
